WARNING: Database file from DATABASE keyword is used; command line argument ignored.
   Input file: a_e_t2
  Output file: a_e_t2.out
Database file: ../database/phreeqc.dat

------------------
Reading data base.
------------------

	SOLUTION_MASTER_SPECIES
	SOLUTION_SPECIES
	PHASES
	GAS_BINARY_PARAMETERS
	EXCHANGE_MASTER_SPECIES
	EXCHANGE_SPECIES
	SURFACE_MASTER_SPECIES
	SURFACE_SPECIES
	MEAN_GAMMAS
	RATES
	END
------------------------------------
Reading input data for simulation 1.
------------------------------------

	database ../database/phreeqc.dat
	SELECTED_OUTPUT 101
	    file                 a_e_t2_101.sel
	USER_PUNCH 101
	    headings Mu SC
	    start
	10 PUNCH STR_F$(MU, 20, 12)
	20 PUNCH STR_F$(SC, 20, 10)
	    end
	PHASES
	Calcite
		CaCO3 = CO3-2 + Ca+2
		log_k	   -8.480
		delta_h -2.297 kcal
		analytical_expression       0   0   0    0	 0   -8.999541E-05 
	SOLUTION_SPECIES
	Ca+2 + CO3-2 = CaCO3
		log_k	   3.224
		delta_h 3.545   kcal
		analytical_expression       0   0   0    0	 0   3E-05	
		dw 4.46e-10	# complexes: calc'd with the Pikal formula
	EXCHANGE_SPECIES
	Ca+2 + 2X- = CaX2
		log_k   0.8
		gamma  5.0     0.165
		delta_h  7.2    # Van Bladel & Gheyl, 1980
		analytical_expression       0   0   0    0	 0   1E-05	
	SURFACE_SPECIES
		Hfo_sOH + Ca+2 = Hfo_sOHCa+2
		log_k  4.97
		analytical_expression       0   0   0    0	 0   5E-05
	END
------------------
End of simulation.
------------------

------------------------------------
Reading input data for simulation 2.
------------------------------------

	SOLUTION
	EQUILIBRIUM_PHASES
		calcite
	EXCHANGE
		NaX   1
	SURFACE
		no_edl
		Hfo_sOH   .01
	USER_PRINT
	10 PRINT "Calcite:    ", lk_phase("Calcite"), lk_phase("Calcite")/TK/TK
	20 PRINT "CaCO3(aq):  ", lk_species("CaCO3"), lk_species("CaCO3")/TK/TK
	30 PRINT "CaX2:       ", lk_species("CaX2"), lk_species("CaX2")/TK/TK
	40 PRINT "Hfo_sOHCa+2:", lk_species("Hfo_sOHCa+2"), lk_species("Hfo_sOHCa+2")/TK/TK
-------------------------------------------
Beginning of initial solution calculations.
-------------------------------------------

Initial solution 1.	

----------------------------------User print-----------------------------------

Calcite:      -8.0000e+00  -8.9995e-05 
CaCO3(aq):     2.6668e+00   3.0000e-05 
CaX2:          8.8893e-01   1.0000e-05 
Hfo_sOHCa+2:   4.4447e+00   5.0000e-05 

-----------------------------Solution composition------------------------------

	Elements           Molality       Moles

	Pure water     

----------------------------Description of solution----------------------------

                                       pH  =   7.000    
                                       pe  =   4.000    
      Specific Conductance (µS/cm,  25°C)  = 0
                          Density (g/cm³)  =   0.99704
                               Volume (L)  =   1.00297
                        Viscosity (mPa s)  =   0.89002
                        Activity of water  =   1.000
                 Ionic strength (mol/kgw)  =   1.007e-07
                       Mass of water (kg)  =   1.000e+00
                 Total alkalinity (eq/kg)  =   1.217e-09
                         Temperature (°C)  =  25.00
                  Electrical balance (eq)  =  -1.217e-09
 Percent error, 100*(Cat-|An|)/(Cat+|An|)  =  -0.60
                               Iterations  =   0
                                  Total H  = 1.110124e+02
                                  Total O  = 5.550622e+01

----------------------------Distribution of species----------------------------

                                               Log       Log       Log    mole V
   Species          Molality    Activity  Molality  Activity     Gamma   cm³/mol

   OH-             1.013e-07   1.012e-07    -6.995    -6.995    -0.000     -4.14
   H+              1.001e-07   1.000e-07    -7.000    -7.000    -0.000      0.00
   H2O             5.551e+01   1.000e+00     1.744     0.000     0.000     18.07
H(0)          1.416e-25
   H2              7.079e-26   7.079e-26   -25.150   -25.150     0.000     14.99
O(0)          0.000e+00
   O2              0.000e+00   0.000e+00   -42.063   -42.063     0.000     30.40

------------------------------Saturation indices-------------------------------

  Phase               SI** log IAP   log K(298 K,   1 atm)

  H2(g)           -22.05    -25.15   -3.10  H2
  H2O(g)           -1.50      0.00    1.50  H2O
  O2(g)           -39.17    -42.06   -2.89  O2

**For a gas, SI = log10(fugacity). Fugacity = pressure * phi / 1 atm.
  For ideal gases, phi = 1.

-----------------------------------------
Beginning of batch-reaction calculations.
-----------------------------------------

Reaction step 1.

Using solution 1.	
Using exchange 1.	
Using surface 1.	
Using pure phase assemblage 1.	

----------------------------------User print-----------------------------------

Calcite:      -8.0000e+00  -8.9995e-05 
CaCO3(aq):     2.6668e+00   3.0000e-05 
CaX2:          8.8893e-01   1.0000e-05 
Hfo_sOHCa+2:   4.4447e+00   5.0000e-05 

-------------------------------Phase assemblage--------------------------------

                                                      Moles in assemblage
Phase               SI  log IAP  log K(T, P)   Initial       Final       Delta

Calcite           0.00    -8.00     -8.00    1.000e+01   9.983e+00  -1.676e-02

------------------------------Surface composition------------------------------

Hfo           
	 -9.082e-03  Surface charge, eq
Hfo_s         
	  1.000e-02  moles
	                                   Mole                     Log
	Species               Moles    Fraction    Molality    Molality

	Hfo_sO-           9.193e-03       0.919   9.193e-03      -2.037
	Hfo_sOH           7.505e-04       0.075   7.505e-04      -3.125
	Hfo_sOHCa+2       5.480e-05       0.005   5.480e-05      -4.261
	Hfo_sOH2+         1.403e-06       0.000   1.403e-06      -5.853

-----------------------------Exchange composition------------------------------

X                1.000e+00 mol

	                               Equiv-    Equivalent      Log 
	Species             Moles      alents      Fraction     Gamma

	NaX               9.666e-01   9.666e-01   9.666e-01    -0.074
	CaX2              1.669e-02   3.339e-02   3.339e-02    -0.290

-----------------------------Solution composition------------------------------

	Elements           Molality       Moles

	C                 1.676e-02   1.676e-02
	Ca                9.721e-06   9.721e-06
	Na                3.339e-02   3.339e-02

----------------------------Description of solution----------------------------

                                       pH  =  10.018      Charge balance
                                       pe  =  -4.370      Adjusted to redox equilibrium
      Specific Conductance (µS/cm,  25°C)  = 2731
                          Density (g/cm³)  =   0.99866
                               Volume (L)  =   1.00312
                        Viscosity (mPa s)  =   0.89758
                        Activity of water  =   0.999
                 Ionic strength (mol/kgw)  =   3.619e-02
                       Mass of water (kg)  =   1.000e+00
                 Total alkalinity (eq/kg)  =   2.432e-02
                       Total CO2 (mol/kg)  =   1.676e-02
                         Temperature (°C)  =  25.00
                  Electrical balance (eq)  =   9.082e-03
 Percent error, 100*(Cat-|An|)/(Cat+|An|)  =  15.80
                               Iterations  =  19
                                  Total H  = 1.110216e+02
                                  Total O  = 5.555649e+01

----------------------------Distribution of species----------------------------

                                               Log       Log       Log    mole V
   Species          Molality    Activity  Molality  Activity     Gamma   cm³/mol

   OH-             1.267e-04   1.054e-04    -3.897    -3.977    -0.080     -3.92
   H+              1.107e-10   9.591e-11    -9.956   -10.018    -0.062      0.00
   H2O             5.551e+01   9.991e-01     1.744    -0.000     0.000     18.07
C(-4)         2.691e-27
   CH4             2.691e-27   2.713e-27   -26.570   -26.566     0.004     35.46
C(4)          1.676e-02
   HCO3-           9.209e-03   7.797e-03    -2.036    -2.108    -0.072     24.95
   CO3-2           7.437e-03   3.812e-03    -2.129    -2.419    -0.290     -3.91
   NaHCO3          1.067e-04   1.081e-04    -3.972    -3.966     0.005     17.66
   CaCO3           4.605e-06   4.643e-06    -5.337    -5.333     0.004     (0)  
   CO2             1.674e-06   1.683e-06    -5.776    -5.774     0.002     34.79
   CaHCO3+         2.109e-12   1.793e-12   -11.676   -11.746    -0.071      9.77
   (CO2)2          4.578e-14   4.604e-14   -13.339   -13.337     0.002     68.75
Ca            9.721e-06
   Ca+2            5.111e-06   2.623e-06    -5.291    -5.581    -0.290    -17.70
   CaCO3           4.605e-06   4.643e-06    -5.337    -5.333     0.004     (0)  
   CaOH+           5.402e-09   4.535e-09    -8.267    -8.343    -0.076     (0)  
   CaHCO3+         2.109e-12   1.793e-12   -11.676   -11.746    -0.071      9.77
H(0)          7.101e-15
   H2              3.551e-15   3.582e-15   -14.450   -14.446     0.004     14.99
Na            3.339e-02
   Na+             3.328e-02   2.804e-02    -1.478    -1.552    -0.074     -1.26
   NaHCO3          1.067e-04   1.081e-04    -3.972    -3.966     0.005     17.66
O(0)          0.000e+00
   O2              0.000e+00   0.000e+00   -63.475   -63.472     0.004     30.40

------------------------------Saturation indices-------------------------------

  Phase               SI** log IAP   log K(298 K,   1 atm)

  Aragonite         0.34     -8.00   -8.34  CaCO3
  Calcite           0.00     -8.00   -8.00  CaCO3
  CH4(g)          -23.76    -26.57   -2.80  CH4
  CO2(g)           -4.31     -5.77   -1.47  CO2
  H2(g)           -11.35    -14.45   -3.10  H2
  H2O(g)           -1.50     -0.00    1.50  H2O
  O2(g)           -60.58    -63.47   -2.89  O2

**For a gas, SI = log10(fugacity). Fugacity = pressure * phi / 1 atm.
  For ideal gases, phi = 1.

------------------
End of simulation.
------------------

------------------------------------
Reading input data for simulation 3.
------------------------------------

