WARNING: Database file from DATABASE keyword is used; command line argument ignored.
   Input file: anh_P_NaCl
  Output file: anh_P_NaCl.out
Database file: ../database/pitzer.dat

------------------
Reading data base.
------------------

WARNING: Unknown input, no keyword has been specified.
	SOLUTION_MASTER_SPECIES
	SOLUTION_SPECIES
	PHASES
	PITZER
	GAS_BINARY_PARAMETERS
	EXCHANGE_MASTER_SPECIES
	EXCHANGE_SPECIES
	SURFACE_MASTER_SPECIES
	SURFACE_SPECIES
	MEAN_GAMMAS
	END
------------------------------------
Reading input data for simulation 1.
------------------------------------

	DATABASE ../database/pitzer.dat
	SELECTED_OUTPUT 101
	    file                 anh_P_NaCl_101.sel
	USER_PUNCH 101
	    headings Mu SC
	    start
	10 PUNCH STR_F$(MU, 20, 12)
	20 PUNCH STR_F$(SC, 20, 10)
	    end
	SOLUTION 1
	 temp 100
	REACTION 1
	NaCl 1
	 0 5*0.2 10*0.5
	INCREMENTAL_REACTIONS true
	EQUILIBRIUM_PHASES 1
	 Anhydrite
	USER_GRAPH
	-connect_simulations false
	-initial_solutions false
	-plot_tsv_file anh_P_100tc.csv
	-chart_title "Anhydrite solubility f(NaCl, P, 100 oC)"
	-axis_titles "NaCl / mol/kgw" "CaSO4 / mol/kgw"
	-axis_scale y_axis 0 0.05
	30 graph_x tot("Na")
	60 graph_y tot("Ca")
	END
-------------------------------------------
Beginning of initial solution calculations.
-------------------------------------------

Initial solution 1.	

-----------------------------Solution composition------------------------------

	Elements           Molality       Moles

	Pure water     

----------------------------Description of solution----------------------------

                                       pH  =   7.000    
                                       pe  =   4.000    
      Specific Conductance (µS/cm, 100°C)  = 2
                          Density (g/cm³)  =   0.95835
                               Volume (L)  =   1.04346
                        Viscosity (mPa s)  =   0.28158
                        Activity of water  =   1.000
                 Ionic strength (mol/kgw)  =   2.945e-06
                       Mass of water (kg)  =   1.000e+00
                 Total alkalinity (eq/kg)  =   5.690e-06
                         Temperature (°C)  = 100.00
                  Electrical balance (eq)  =  -5.690e-06
 Percent error, 100*(Cat-|An|)/(Cat+|An|)  = -96.60
                               Iterations  =   3
                         Gamma iterations  =   2
                      Osmotic coefficient  =   0.99921
                         Density of water  =   0.95835
                                  Total H  = 1.110124e+02
                                  Total O  = 5.550622e+01

----------------------------Distribution of species----------------------------

                                                    MacInnes  MacInnes
                                MacInnes       Log       Log       Log    mole V
   Species          Molality    Activity  Molality  Activity     Gamma   cm³/mol

   OH-             5.790e-06   5.777e-06    -5.237    -5.238    -0.001     -5.96
   H+              1.002e-07   1.000e-07    -6.999    -7.000    -0.001      0.00
   H2O             5.551e+01   1.000e+00     1.744    -0.000     0.000     18.80

------------------------------Saturation indices-------------------------------

  Phase               SI** log IAP   log K(373 K,   1 atm)

  H2O(g)           -0.00     -0.00    0.00  H2O

**For a gas, SI = log10(fugacity). Fugacity = pressure * phi / 1 atm.
  For ideal gases, phi = 1.

-----------------------------------------
Beginning of batch-reaction calculations.
-----------------------------------------

Reaction step 1.

Using solution 1.	
Using pure phase assemblage 1.	
Using reaction 1.	

Reaction 1.	

	  0.000e+00 moles of the following reaction have been added:

	                 Relative
	Reactant            moles

	NaCl                 1.00000

	                 Relative
	Element             moles
	Cl                   1.00000
	Na                   1.00000

-------------------------------Phase assemblage--------------------------------

                                                      Moles in assemblage
Phase               SI  log IAP  log K(T, P)   Initial       Final       Delta

Anhydrite         0.00    -5.37     -5.37    1.000e+01   9.995e+00  -5.267e-03

-----------------------------Solution composition------------------------------

	Elements           Molality       Moles

	Ca                5.267e-03   5.267e-03
	S                 5.267e-03   5.267e-03

----------------------------Description of solution----------------------------

                                       pH  =   6.933      Charge balance
                                       pe  =   4.000      Adjusted to redox equilibrium
      Specific Conductance (µS/cm, 100°C)  = 3214
                          Density (g/cm³)  =   0.95906
                               Volume (L)  =   1.04343
                        Viscosity (mPa s)  =   0.28354
                        Activity of water  =   1.000
                 Ionic strength (mol/kgw)  =   2.107e-02
                       Mass of water (kg)  =   1.000e+00
                 Total alkalinity (eq/kg)  =   5.690e-06
                         Temperature (°C)  = 100.00
                  Electrical balance (eq)  =  -5.690e-06
 Percent error, 100*(Cat-|An|)/(Cat+|An|)  =  -0.03
                               Iterations  =  12
                         Gamma iterations  =   4
                      Osmotic coefficient  =   0.70394
                         Density of water  =   0.95835
                                  Total H  = 1.110124e+02
                                  Total O  = 5.552729e+01

----------------------------Distribution of species----------------------------

                                                    MacInnes  MacInnes
                                MacInnes       Log       Log       Log    mole V
   Species          Molality    Activity  Molality  Activity     Gamma   cm³/mol

   OH-             6.027e-06   4.950e-06    -5.220    -5.305    -0.086     -5.64
   H+              1.379e-07   1.167e-07    -6.861    -6.933    -0.072      0.00
   H2O             5.551e+01   9.999e-01     1.744    -0.000     0.000     18.80
Ca            5.267e-03
   Ca+2            5.267e-03   2.070e-03    -2.278    -2.684    -0.406    -19.09
S(6)          5.267e-03
   SO4-2           5.266e-03   2.052e-03    -2.278    -2.688    -0.409     13.04
   HSO4-           1.990e-07   1.716e-07    -6.701    -6.766    -0.064     40.96

------------------------------Saturation indices-------------------------------

  Phase               SI** log IAP   log K(373 K,   1 atm)

  Anhydrite         0.00     -5.37   -5.37  CaSO4
  Gypsum           -0.41     -5.37   -4.96  CaSO4:2H2O
  H2O(g)           -0.01     -0.00    0.00  H2O
  Portlandite      -8.10    -13.29   -5.19  Ca(OH)2

**For a gas, SI = log10(fugacity). Fugacity = pressure * phi / 1 atm.
  For ideal gases, phi = 1.

Reaction step 2.

Using solution 1.	
Using pure phase assemblage 1.	
Using reaction 1.	

Reaction 1.	

	  2.000e-01 moles of the following reaction have been added:

	                 Relative
	Reactant            moles

	NaCl                 1.00000

	                 Relative
	Element             moles
	Cl                   1.00000
	Na                   1.00000

-------------------------------Phase assemblage--------------------------------

                                                      Moles in assemblage
Phase               SI  log IAP  log K(T, P)   Initial       Final       Delta

Anhydrite         0.00    -5.37     -5.37    9.995e+00   9.987e+00  -7.383e-03

-----------------------------Solution composition------------------------------

	Elements           Molality       Moles

	Ca                1.265e-02   1.265e-02
	Cl                2.000e-01   2.000e-01
	Na                2.000e-01   2.000e-01
	S                 1.265e-02   1.265e-02

----------------------------Description of solution----------------------------

                                       pH  =   6.829      Charge balance
                                       pe  =   4.000      Adjusted to redox equilibrium
      Specific Conductance (µS/cm, 100°C)  = 56103
                          Density (g/cm³)  =   0.96790
                               Volume (L)  =   1.04702
                        Viscosity (mPa s)  =   0.29132
                        Activity of water  =   0.993
                 Ionic strength (mol/kgw)  =   2.506e-01
                       Mass of water (kg)  =   1.000e+00
                 Total alkalinity (eq/kg)  =   5.690e-06
                         Temperature (°C)  = 100.00
                  Electrical balance (eq)  =  -5.690e-06
 Percent error, 100*(Cat-|An|)/(Cat+|An|)  =  -0.00
                               Iterations  =   8
                         Gamma iterations  =   4
                      Osmotic coefficient  =   0.89056
                         Density of water  =   0.95835
                                  Total H  = 1.110124e+02
                                  Total O  = 5.555682e+01

----------------------------Distribution of species----------------------------

                                                    MacInnes  MacInnes
                                MacInnes       Log       Log       Log    mole V
   Species          Molality    Activity  Molality  Activity     Gamma   cm³/mol

   OH-             6.186e-06   3.874e-06    -5.209    -5.412    -0.203     -4.68
   H+              2.107e-07   1.481e-07    -6.676    -6.829    -0.153      0.00
   H2O             5.551e+01   9.932e-01     1.744    -0.003     0.000     18.80
Ca            1.265e-02
   Ca+2            1.265e-02   2.367e-03    -1.898    -2.626    -0.728    -17.78
Cl            2.000e-01
   Cl-             2.000e-01   1.338e-01    -0.699    -0.874    -0.175     17.07
Na            2.000e-01
   Na+             2.000e-01   1.392e-01    -0.699    -0.857    -0.158      0.91
S(6)          1.265e-02
   SO4-2           1.265e-02   1.794e-03    -1.898    -2.746    -0.848     14.72
   HSO4-           2.852e-07   1.904e-07    -6.545    -6.720    -0.175     41.63

------------------------------Saturation indices-------------------------------

  Phase               SI** log IAP   log K(373 K,   1 atm)

  Anhydrite         0.00     -5.37   -5.37  CaSO4
  Glauberite       -3.16     -9.83   -6.67  Na2Ca(SO4)2
  Gypsum           -0.42     -5.38   -4.96  CaSO4:2H2O
  H2O(g)           -0.01     -0.00    0.00  H2O
  Halite           -3.31     -1.73    1.58  NaCl
  Labile_S         -8.62    -14.30   -5.67  Na4Ca(SO4)3:2H2O
  Mirabilite       -4.82     -4.49    0.33  Na2SO4:10H2O
  Portlandite      -8.26    -13.45   -5.19  Ca(OH)2
  Thenardite       -3.73     -4.46   -0.73  Na2SO4

**For a gas, SI = log10(fugacity). Fugacity = pressure * phi / 1 atm.
  For ideal gases, phi = 1.

Reaction step 3.

Using solution 1.	
Using pure phase assemblage 1.	
Using reaction 1.	

Reaction 1.	

	  2.000e-01 moles of the following reaction have been added:

	                 Relative
	Reactant            moles

	NaCl                 1.00000

	                 Relative
	Element             moles
	Cl                   1.00000
	Na                   1.00000

-------------------------------Phase assemblage--------------------------------

                                                      Moles in assemblage
Phase               SI  log IAP  log K(T, P)   Initial       Final       Delta

Anhydrite         0.00    -5.37     -5.37    9.987e+00   9.984e+00  -3.814e-03

-----------------------------Solution composition------------------------------

	Elements           Molality       Moles

	Ca                1.646e-02   1.646e-02
	Cl                4.000e-01   4.000e-01
	Na                4.000e-01   4.000e-01
	S                 1.646e-02   1.646e-02

----------------------------Description of solution----------------------------

                                       pH  =   6.795      Charge balance
                                       pe  =   4.000      Adjusted to redox equilibrium
      Specific Conductance (µS/cm, 100°C)  = 100447
                          Density (g/cm³)  =   0.97602
                               Volume (L)  =   1.05081
                        Viscosity (mPa s)  =   0.29899
                        Activity of water  =   0.987
                 Ionic strength (mol/kgw)  =   4.659e-01
                       Mass of water (kg)  =   1.000e+00
                 Total alkalinity (eq/kg)  =   5.690e-06
                         Temperature (°C)  = 100.00
                  Electrical balance (eq)  =  -5.690e-06
 Percent error, 100*(Cat-|An|)/(Cat+|An|)  =  -0.00
                               Iterations  =  10
                         Gamma iterations  =   4
                      Osmotic coefficient  =   0.89662
                         Density of water  =   0.95835
                                  Total H  = 1.110124e+02
                                  Total O  = 5.557208e+01

----------------------------Distribution of species----------------------------

                                                    MacInnes  MacInnes
                                MacInnes       Log       Log       Log    mole V
   Species          Molality    Activity  Molality  Activity     Gamma   cm³/mol

   OH-             6.215e-06   3.558e-06    -5.207    -5.449    -0.242     -4.08
   H+              2.302e-07   1.602e-07    -6.638    -6.795    -0.157      0.00
   H2O             5.551e+01   9.866e-01     1.744    -0.006     0.000     18.80
Ca            1.646e-02
   Ca+2            1.646e-02   2.709e-03    -1.783    -2.567    -0.784    -17.35
Cl            4.000e-01
   Cl-             4.000e-01   2.496e-01    -0.398    -0.603    -0.205     17.39
Na            4.000e-01
   Na+             4.000e-01   2.668e-01    -0.398    -0.574    -0.176      1.05
S(6)          1.646e-02
   SO4-2           1.646e-02   1.568e-03    -1.783    -2.805    -1.021     15.63
   HSO4-           2.943e-07   1.799e-07    -6.531    -6.745    -0.214     41.95

------------------------------Saturation indices-------------------------------

  Phase               SI** log IAP   log K(373 K,   1 atm)

  Anhydrite         0.00     -5.37   -5.37  CaSO4
  Glauberite       -2.66     -9.32   -6.67  Na2Ca(SO4)2
  Gypsum           -0.42     -5.38   -4.96  CaSO4:2H2O
  H2O(g)           -0.01     -0.01    0.00  H2O
  Halite           -2.76     -1.18    1.58  NaCl
  Labile_S         -7.62    -13.29   -5.67  Na4Ca(SO4)3:2H2O
  Mirabilite       -4.34     -4.01    0.33  Na2SO4:10H2O
  Portlandite      -8.27    -13.46   -5.19  Ca(OH)2
  Thenardite       -3.23     -3.95   -0.73  Na2SO4

**For a gas, SI = log10(fugacity). Fugacity = pressure * phi / 1 atm.
  For ideal gases, phi = 1.

Reaction step 4.

Using solution 1.	
Using pure phase assemblage 1.	
Using reaction 1.	

Reaction 1.	

	  2.000e-01 moles of the following reaction have been added:

	                 Relative
	Reactant            moles

	NaCl                 1.00000

	                 Relative
	Element             moles
	Cl                   1.00000
	Na                   1.00000

-------------------------------Phase assemblage--------------------------------

                                                      Moles in assemblage
Phase               SI  log IAP  log K(T, P)   Initial       Final       Delta

Anhydrite         0.00    -5.37     -5.37    9.984e+00   9.981e+00  -2.814e-03

-----------------------------Solution composition------------------------------

	Elements           Molality       Moles

	Ca                1.928e-02   1.928e-02
	Cl                6.000e-01   6.000e-01
	Na                6.000e-01   6.000e-01
	S                 1.928e-02   1.928e-02

----------------------------Description of solution----------------------------

                                       pH  =   6.774      Charge balance
                                       pe  =   4.000      Adjusted to redox equilibrium
      Specific Conductance (µS/cm, 100°C)  = 141032
                          Density (g/cm³)  =   0.98385
                               Volume (L)  =   1.05472
                        Viscosity (mPa s)  =   0.30658
                        Activity of water  =   0.980
                 Ionic strength (mol/kgw)  =   6.771e-01
                       Mass of water (kg)  =   1.000e+00
                 Total alkalinity (eq/kg)  =   5.690e-06
                         Temperature (°C)  = 100.00
                  Electrical balance (eq)  =  -5.690e-06
 Percent error, 100*(Cat-|An|)/(Cat+|An|)  =  -0.00
                               Iterations  =   8
                         Gamma iterations  =   3
                      Osmotic coefficient  =   0.90493
                         Density of water  =   0.95835
                                  Total H  = 1.110124e+02
                                  Total O  = 5.558333e+01

----------------------------Distribution of species----------------------------

                                                    MacInnes  MacInnes
                                MacInnes       Log       Log       Log    mole V
   Species          Molality    Activity  Molality  Activity     Gamma   cm³/mol

   OH-             6.218e-06   3.366e-06    -5.206    -5.473    -0.266     -3.56
   H+              2.367e-07   1.682e-07    -6.626    -6.774    -0.148      0.00
   H2O             5.551e+01   9.800e-01     1.744    -0.009     0.000     18.80
Ca            1.928e-02
   Ca+2            1.928e-02   3.056e-03    -1.715    -2.515    -0.800    -17.06
Cl            6.000e-01
   Cl-             6.000e-01   3.598e-01    -0.222    -0.444    -0.222     17.64
Na            6.000e-01
   Na+             6.000e-01   3.949e-01    -0.222    -0.403    -0.182      1.15
S(6)          1.928e-02
   SO4-2           1.928e-02   1.390e-03    -1.715    -2.857    -1.142     16.33
   HSO4-           2.909e-07   1.675e-07    -6.536    -6.776    -0.240     42.19

------------------------------Saturation indices-------------------------------

  Phase               SI** log IAP   log K(373 K,   1 atm)

  Anhydrite         0.00     -5.37   -5.37  CaSO4
  Glauberite       -2.37     -9.04   -6.67  Na2Ca(SO4)2
  Gypsum           -0.43     -5.39   -4.96  CaSO4:2H2O
  H2O(g)           -0.01     -0.01    0.00  H2O
  Halite           -2.43     -0.85    1.58  NaCl
  Labile_S         -7.05    -12.72   -5.67  Na4Ca(SO4)3:2H2O
  Mirabilite       -4.09     -3.75    0.33  Na2SO4:10H2O
  Portlandite      -8.27    -13.46   -5.19  Ca(OH)2
  Thenardite       -2.94     -3.66   -0.73  Na2SO4

**For a gas, SI = log10(fugacity). Fugacity = pressure * phi / 1 atm.
  For ideal gases, phi = 1.

Reaction step 5.

Using solution 1.	
Using pure phase assemblage 1.	
Using reaction 1.	

Reaction 1.	

	  2.000e-01 moles of the following reaction have been added:

	                 Relative
	Reactant            moles

	NaCl                 1.00000

	                 Relative
	Element             moles
	Cl                   1.00000
	Na                   1.00000

-------------------------------Phase assemblage--------------------------------

                                                      Moles in assemblage
Phase               SI  log IAP  log K(T, P)   Initial       Final       Delta

Anhydrite         0.00    -5.37     -5.37    9.981e+00   9.978e+00  -2.231e-03

-----------------------------Solution composition------------------------------

	Elements           Molality       Moles

	Ca                2.151e-02   2.151e-02
	Cl                8.000e-01   8.000e-01
	Na                8.000e-01   8.000e-01
	S                 2.151e-02   2.151e-02

----------------------------Description of solution----------------------------

                                       pH  =   6.759      Charge balance
                                       pe  =   4.000      Adjusted to redox equilibrium
      Specific Conductance (µS/cm, 100°C)  = 178724
                          Density (g/cm³)  =   0.99147
                               Volume (L)  =   1.05871
                        Viscosity (mPa s)  =   0.31420
                        Activity of water  =   0.973
                 Ionic strength (mol/kgw)  =   8.860e-01
                       Mass of water (kg)  =   1.000e+00
                 Total alkalinity (eq/kg)  =   5.690e-06
                         Temperature (°C)  = 100.00
                  Electrical balance (eq)  =  -5.690e-06
 Percent error, 100*(Cat-|An|)/(Cat+|An|)  =  -0.00
                               Iterations  =   8
                         Gamma iterations  =   3
                      Osmotic coefficient  =   0.91442
                         Density of water  =   0.95835
                                  Total H  = 1.110124e+02
                                  Total O  = 5.559226e+01

----------------------------Distribution of species----------------------------

                                                    MacInnes  MacInnes
                                MacInnes       Log       Log       Log    mole V
   Species          Molality    Activity  Molality  Activity     Gamma   cm³/mol

   OH-             6.210e-06   3.228e-06    -5.207    -5.491    -0.284     -3.10
   H+              2.367e-07   1.742e-07    -6.626    -6.759    -0.133      0.00
   H2O             5.551e+01   9.733e-01     1.744    -0.012     0.000     18.80
Ca            2.151e-02
   Ca+2            2.151e-02   3.413e-03    -1.667    -2.467    -0.799    -16.85
Cl            8.000e-01
   Cl-             8.000e-01   4.673e-01    -0.097    -0.330    -0.233     17.83
Na            8.000e-01
   Na+             8.000e-01   5.263e-01    -0.097    -0.279    -0.182      1.22
S(6)          2.151e-02
   SO4-2           2.151e-02   1.244e-03    -1.667    -2.905    -1.238     16.93
   HSO4-           2.828e-07   1.553e-07    -6.548    -6.809    -0.260     42.39

------------------------------Saturation indices-------------------------------

  Phase               SI** log IAP   log K(373 K,   1 atm)

  Anhydrite         0.00     -5.37   -5.37  CaSO4
  Glauberite       -2.17     -8.83   -6.67  Na2Ca(SO4)2
  Gypsum           -0.44     -5.40   -4.96  CaSO4:2H2O
  H2O(g)           -0.02     -0.01    0.00  H2O
  Halite           -2.19     -0.61    1.58  NaCl
  Labile_S         -6.65    -12.32   -5.67  Na4Ca(SO4)3:2H2O
  Mirabilite       -3.91     -3.58    0.33  Na2SO4:10H2O
  Portlandite      -8.26    -13.45   -5.19  Ca(OH)2
  Thenardite       -2.74     -3.46   -0.73  Na2SO4

**For a gas, SI = log10(fugacity). Fugacity = pressure * phi / 1 atm.
  For ideal gases, phi = 1.

Reaction step 6.

Using solution 1.	
Using pure phase assemblage 1.	
Using reaction 1.	

Reaction 1.	

	  2.000e-01 moles of the following reaction have been added:

	                 Relative
	Reactant            moles

	NaCl                 1.00000

	                 Relative
	Element             moles
	Cl                   1.00000
	Na                   1.00000

-------------------------------Phase assemblage--------------------------------

                                                      Moles in assemblage
Phase               SI  log IAP  log K(T, P)   Initial       Final       Delta

Anhydrite         0.00    -5.37     -5.37    9.978e+00   9.977e+00  -1.820e-03

-----------------------------Solution composition------------------------------

	Elements           Molality       Moles

	Ca                2.333e-02   2.333e-02
	Cl                1.000e+00   1.000e+00
	Na                1.000e+00   1.000e+00
	S                 2.333e-02   2.333e-02

----------------------------Description of solution----------------------------

                                       pH  =   6.747      Charge balance
                                       pe  =   4.000      Adjusted to redox equilibrium
      Specific Conductance (µS/cm, 100°C)  = 213925
                          Density (g/cm³)  =   0.99892
                               Volume (L)  =   1.06276
                        Viscosity (mPa s)  =   0.32191
                        Activity of water  =   0.966
                 Ionic strength (mol/kgw)  =   1.093e+00
                       Mass of water (kg)  =   1.000e+00
                 Total alkalinity (eq/kg)  =   5.690e-06
                         Temperature (°C)  = 100.00
                  Electrical balance (eq)  =  -5.690e-06
 Percent error, 100*(Cat-|An|)/(Cat+|An|)  =  -0.00
                               Iterations  =   8
                         Gamma iterations  =   3
                      Osmotic coefficient  =   0.92466
                         Density of water  =   0.95835
                                  Total H  = 1.110124e+02
                                  Total O  = 5.559954e+01

----------------------------Distribution of species----------------------------

                                                    MacInnes  MacInnes
                                MacInnes       Log       Log       Log    mole V
   Species          Molality    Activity  Molality  Activity     Gamma   cm³/mol

   OH-             6.196e-06   3.118e-06    -5.208    -5.506    -0.298     -2.66
   H+              2.329e-07   1.790e-07    -6.633    -6.747    -0.114      0.00
   H2O             5.551e+01   9.665e-01     1.744    -0.015     0.000     18.80
Ca            2.333e-02
   Ca+2            2.333e-02   3.787e-03    -1.632    -2.422    -0.790    -16.66
Cl            1.000e+00
   Cl-             1.000e+00   5.736e-01     0.000    -0.241    -0.241     18.00
Na            1.000e+00
   Na+             1.000e+00   6.624e-01     0.000    -0.179    -0.179      1.28
S(6)          2.333e-02
   SO4-2           2.333e-02   1.122e-03    -1.632    -2.950    -1.318     17.47
   HSO4-           2.728e-07   1.439e-07    -6.564    -6.842    -0.278     42.56

------------------------------Saturation indices-------------------------------

  Phase               SI** log IAP   log K(373 K,   1 atm)

  Anhydrite         0.00     -5.37   -5.37  CaSO4
  Glauberite       -2.01     -8.68   -6.67  Na2Ca(SO4)2
  Gypsum           -0.44     -5.40   -4.96  CaSO4:2H2O
  H2O(g)           -0.02     -0.01    0.00  H2O
  Halite           -2.00     -0.42    1.58  NaCl
  Labile_S         -6.35    -12.02   -5.67  Na4Ca(SO4)3:2H2O
  Mirabilite       -3.79     -3.46    0.33  Na2SO4:10H2O
  Portlandite      -8.24    -13.43   -5.19  Ca(OH)2
  Thenardite       -2.58     -3.31   -0.73  Na2SO4

**For a gas, SI = log10(fugacity). Fugacity = pressure * phi / 1 atm.
  For ideal gases, phi = 1.

Reaction step 7.

Using solution 1.	
Using pure phase assemblage 1.	
Using reaction 1.	

Reaction 1.	

	  5.000e-01 moles of the following reaction have been added:

	                 Relative
	Reactant            moles

	NaCl                 1.00000

	                 Relative
	Element             moles
	Cl                   1.00000
	Na                   1.00000

-------------------------------Phase assemblage--------------------------------

                                                      Moles in assemblage
Phase               SI  log IAP  log K(T, P)   Initial       Final       Delta

Anhydrite         0.00    -5.37     -5.37    9.977e+00   9.973e+00  -3.268e-03

-----------------------------Solution composition------------------------------

	Elements           Molality       Moles

	Ca                2.660e-02   2.660e-02
	Cl                1.500e+00   1.500e+00
	Na                1.500e+00   1.500e+00
	S                 2.660e-02   2.660e-02

----------------------------Description of solution----------------------------

                                       pH  =   6.725      Charge balance
                                       pe  =   4.000      Adjusted to redox equilibrium
      Specific Conductance (µS/cm, 100°C)  = 292500
                          Density (g/cm³)  =   1.01691
                               Volume (L)  =   1.07314
                        Viscosity (mPa s)  =   0.34166
                        Activity of water  =   0.949
                 Ionic strength (mol/kgw)  =   1.606e+00
                       Mass of water (kg)  =   1.000e+00
                 Total alkalinity (eq/kg)  =   5.690e-06
                         Temperature (°C)  = 100.00
                  Electrical balance (eq)  =  -5.690e-06
 Percent error, 100*(Cat-|An|)/(Cat+|An|)  =  -0.00
                               Iterations  =   8
                         Gamma iterations  =   3
                      Osmotic coefficient  =   0.95220
                         Density of water  =   0.95835
                                  Total H  = 1.110124e+02
                                  Total O  = 5.561261e+01

----------------------------Distribution of species----------------------------

                                                    MacInnes  MacInnes
                                MacInnes       Log       Log       Log    mole V
   Species          Molality    Activity  Molality  Activity     Gamma   cm³/mol

   OH-             6.150e-06   2.914e-06    -5.211    -5.536    -0.324     -1.66
   H+              2.146e-07   1.882e-07    -6.668    -6.725    -0.057      0.00
   H2O             5.551e+01   9.490e-01     1.744    -0.023     0.000     18.80
Ca            2.660e-02
   Ca+2            2.660e-02   4.817e-03    -1.575    -2.317    -0.742    -16.30
Cl            1.500e+00
   Cl-             1.500e+00   8.386e-01     0.176    -0.076    -0.253     18.35
Na            1.500e+00
   Na+             1.500e+00   1.030e+00     0.176     0.013    -0.163      1.39
S(6)          2.660e-02
   SO4-2           2.660e-02   8.818e-04    -1.575    -3.055    -1.479     18.61
   HSO4-           2.453e-07   1.189e-07    -6.610    -6.925    -0.314     42.91

------------------------------Saturation indices-------------------------------

  Phase               SI** log IAP   log K(373 K,   1 atm)

  Anhydrite         0.00     -5.37   -5.37  CaSO4
  Glauberite       -1.73     -8.40   -6.67  Na2Ca(SO4)2
  Gypsum           -0.46     -5.42   -4.96  CaSO4:2H2O
  H2O(g)           -0.03     -0.02    0.00  H2O
  Halite           -1.65     -0.06    1.58  NaCl
  Labile_S         -5.80    -11.47   -5.67  Na4Ca(SO4)3:2H2O
  Mirabilite       -3.59     -3.26    0.33  Na2SO4:10H2O
  Portlandite      -8.20    -13.39   -5.19  Ca(OH)2
  Thenardite       -2.30     -3.03   -0.73  Na2SO4

**For a gas, SI = log10(fugacity). Fugacity = pressure * phi / 1 atm.
  For ideal gases, phi = 1.

Reaction step 8.

Using solution 1.	
Using pure phase assemblage 1.	
Using reaction 1.	

Reaction 1.	

	  5.000e-01 moles of the following reaction have been added:

	                 Relative
	Reactant            moles

	NaCl                 1.00000

	                 Relative
	Element             moles
	Cl                   1.00000
	Na                   1.00000

-------------------------------Phase assemblage--------------------------------

                                                      Moles in assemblage
Phase               SI  log IAP  log K(T, P)   Initial       Final       Delta

Anhydrite         0.00    -5.37     -5.37    9.973e+00   9.971e+00  -1.954e-03

-----------------------------Solution composition------------------------------

	Elements           Molality       Moles

	Ca                2.855e-02   2.855e-02
	Cl                2.000e+00   2.000e+00
	Na                2.000e+00   2.000e+00
	S                 2.855e-02   2.855e-02

----------------------------Description of solution----------------------------

                                       pH  =   6.710      Charge balance
                                       pe  =   4.000      Adjusted to redox equilibrium
      Specific Conductance (µS/cm, 100°C)  = 359451
                          Density (g/cm³)  =   1.03414
                               Volume (L)  =   1.08378
                        Viscosity (mPa s)  =   0.36225
                        Activity of water  =   0.931
                 Ionic strength (mol/kgw)  =   2.114e+00
                       Mass of water (kg)  =   1.000e+00
                 Total alkalinity (eq/kg)  =   5.690e-06
                         Temperature (°C)  = 100.00
                  Electrical balance (eq)  =  -5.690e-06
 Percent error, 100*(Cat-|An|)/(Cat+|An|)  =  -0.00
                               Iterations  =   8
                         Gamma iterations  =   3
                      Osmotic coefficient  =   0.98136
                         Density of water  =   0.95835
                                  Total H  = 1.110124e+02
                                  Total O  = 5.562042e+01

----------------------------Distribution of species----------------------------

                                                    MacInnes  MacInnes
                                MacInnes       Log       Log       Log    mole V
   Species          Molality    Activity  Molality  Activity     Gamma   cm³/mol

   OH-             6.100e-06   2.758e-06    -5.215    -5.559    -0.345     -0.73
   H+              1.913e-07   1.950e-07    -6.718    -6.710     0.008      0.00
   H2O             5.551e+01   9.308e-01     1.744    -0.031     0.000     18.80
Ca            2.855e-02
   Ca+2            2.855e-02   6.017e-03    -1.544    -2.221    -0.676    -16.00
Cl            2.000e+00
   Cl-             2.000e+00   1.108e+00     0.301     0.044    -0.257     18.63
Na            2.000e+00
   Na+             2.000e+00   1.446e+00     0.301     0.160    -0.141      1.48
S(6)          2.855e-02
   SO4-2           2.855e-02   7.059e-04    -1.544    -3.151    -1.607     19.58
   HSO4-           2.185e-07   9.863e-08    -6.661    -7.006    -0.345     43.18

------------------------------Saturation indices-------------------------------

  Phase               SI** log IAP   log K(373 K,   1 atm)

  Anhydrite         0.00     -5.37   -5.37  CaSO4
  Glauberite       -1.54     -8.20   -6.67  Na2Ca(SO4)2
  Gypsum           -0.48     -5.43   -4.96  CaSO4:2H2O
  H2O(g)           -0.04     -0.03    0.00  H2O
  Halite           -1.38      0.20    1.58  NaCl
  Labile_S         -5.42    -11.10   -5.67  Na4Ca(SO4)3:2H2O
  Mirabilite       -3.48     -3.14    0.33  Na2SO4:10H2O
  Portlandite      -8.15    -13.34   -5.19  Ca(OH)2
  Thenardite       -2.11     -2.83   -0.73  Na2SO4

**For a gas, SI = log10(fugacity). Fugacity = pressure * phi / 1 atm.
  For ideal gases, phi = 1.

Reaction step 9.

Using solution 1.	
Using pure phase assemblage 1.	
Using reaction 1.	

Reaction 1.	

	  5.000e-01 moles of the following reaction have been added:

	                 Relative
	Reactant            moles

	NaCl                 1.00000

	                 Relative
	Element             moles
	Cl                   1.00000
	Na                   1.00000

-------------------------------Phase assemblage--------------------------------

                                                      Moles in assemblage
Phase               SI  log IAP  log K(T, P)   Initial       Final       Delta

Anhydrite         0.00    -5.37     -5.37    9.971e+00   9.970e+00  -1.027e-03

-----------------------------Solution composition------------------------------

	Elements           Molality       Moles

	Ca                2.958e-02   2.958e-02
	Cl                2.500e+00   2.500e+00
	Na                2.500e+00   2.500e+00
	S                 2.958e-02   2.958e-02

----------------------------Description of solution----------------------------

                                       pH  =   6.697      Charge balance
                                       pe  =   4.000      Adjusted to redox equilibrium
      Specific Conductance (µS/cm, 100°C)  = 416468
                          Density (g/cm³)  =   1.05071
                               Volume (L)  =   1.09462
                        Viscosity (mPa s)  =   0.38378
                        Activity of water  =   0.912
                 Ionic strength (mol/kgw)  =   2.618e+00
                       Mass of water (kg)  =   1.000e+00
                 Total alkalinity (eq/kg)  =   5.690e-06
                         Temperature (°C)  = 100.00
                  Electrical balance (eq)  =  -5.689e-06
 Percent error, 100*(Cat-|An|)/(Cat+|An|)  =  -0.00
                               Iterations  =   7
                         Gamma iterations  =   3
                      Osmotic coefficient  =   1.01125
                         Density of water  =   0.95835
                                  Total H  = 1.110124e+02
                                  Total O  = 5.562453e+01

----------------------------Distribution of species----------------------------

                                                    MacInnes  MacInnes
                                MacInnes       Log       Log       Log    mole V
   Species          Molality    Activity  Molality  Activity     Gamma   cm³/mol

   OH-             6.052e-06   2.624e-06    -5.218    -5.581    -0.363      0.15
   H+              1.676e-07   2.008e-07    -6.776    -6.697     0.079      0.00
   H2O             5.551e+01   9.120e-01     1.744    -0.040     0.000     18.80
Ca            2.958e-02
   Ca+2            2.958e-02   7.428e-03    -1.529    -2.129    -0.600    -15.74
Cl            2.500e+00
   Cl-             2.500e+00   1.384e+00     0.398     0.141    -0.257     18.86
Na            2.500e+00
   Na+             2.500e+00   1.919e+00     0.398     0.283    -0.115      1.55
S(6)          2.958e-02
   SO4-2           2.958e-02   5.718e-04    -1.529    -3.243    -1.714     20.44
   HSO4-           1.943e-07   8.225e-08    -6.712    -7.085    -0.373     43.41

------------------------------Saturation indices-------------------------------

  Phase               SI** log IAP   log K(373 K,   1 atm)

  Anhydrite         0.00     -5.37   -5.37  CaSO4
  Glauberite       -1.38     -8.05   -6.67  Na2Ca(SO4)2
  Gypsum           -0.49     -5.45   -4.96  CaSO4:2H2O
  H2O(g)           -0.05     -0.04    0.00  H2O
  Halite           -1.16      0.42    1.58  NaCl
  Labile_S         -5.13    -10.81   -5.67  Na4Ca(SO4)3:2H2O
  Mirabilite       -3.41     -3.08    0.33  Na2SO4:10H2O
  Portlandite      -8.10    -13.29   -5.19  Ca(OH)2
  Thenardite       -1.95     -2.68   -0.73  Na2SO4

**For a gas, SI = log10(fugacity). Fugacity = pressure * phi / 1 atm.
  For ideal gases, phi = 1.

Reaction step 10.

Using solution 1.	
Using pure phase assemblage 1.	
Using reaction 1.	

Reaction 1.	

	  5.000e-01 moles of the following reaction have been added:

	                 Relative
	Reactant            moles

	NaCl                 1.00000

	                 Relative
	Element             moles
	Cl                   1.00000
	Na                   1.00000

-------------------------------Phase assemblage--------------------------------

                                                      Moles in assemblage
Phase               SI  log IAP  log K(T, P)   Initial       Final       Delta

Anhydrite         0.00    -5.37     -5.37    9.970e+00   9.970e+00  -3.602e-04

-----------------------------Solution composition------------------------------

	Elements           Molality       Moles

	Ca                2.994e-02   2.994e-02
	Cl                3.000e+00   3.000e+00
	Na                3.000e+00   3.000e+00
	S                 2.994e-02   2.994e-02

----------------------------Description of solution----------------------------

                                       pH  =   6.686      Charge balance
                                       pe  =   4.000      Adjusted to redox equilibrium
      Specific Conductance (µS/cm, 100°C)  = 464873
                          Density (g/cm³)  =   1.06672
                               Volume (L)  =   1.10564
                        Viscosity (mPa s)  =   0.40630
                        Activity of water  =   0.893
                 Ionic strength (mol/kgw)  =   3.120e+00
                       Mass of water (kg)  =   1.000e+00
                 Total alkalinity (eq/kg)  =   5.690e-06
                         Temperature (°C)  = 100.00
                  Electrical balance (eq)  =  -5.689e-06
 Percent error, 100*(Cat-|An|)/(Cat+|An|)  =  -0.00
                               Iterations  =   7
                         Gamma iterations  =   3
                      Osmotic coefficient  =   1.04130
                         Density of water  =   0.95835
                                  Total H  = 1.110124e+02
                                  Total O  = 5.562597e+01

----------------------------Distribution of species----------------------------

                                                    MacInnes  MacInnes
                                MacInnes       Log       Log       Log    mole V
   Species          Molality    Activity  Molality  Activity     Gamma   cm³/mol

   OH-             6.009e-06   2.501e-06    -5.221    -5.602    -0.381      1.00
   H+              1.452e-07   2.062e-07    -6.838    -6.686     0.152      0.00
   H2O             5.551e+01   8.925e-01     1.744    -0.049     0.000     18.80
Ca            2.994e-02
   Ca+2            2.994e-02   9.093e-03    -1.524    -2.041    -0.518    -15.50
Cl            3.000e+00
   Cl-             3.000e+00   1.670e+00     0.477     0.223    -0.254     19.07
Na            3.000e+00
   Na+             3.000e+00   2.458e+00     0.477     0.391    -0.087      1.60
S(6)          2.994e-02
   SO4-2           2.994e-02   4.671e-04    -1.524    -3.331    -1.807     21.22
   HSO4-           1.732e-07   6.902e-08    -6.761    -7.161    -0.400     43.61

------------------------------Saturation indices-------------------------------

  Phase               SI** log IAP   log K(373 K,   1 atm)

  Anhydrite         0.00     -5.37   -5.37  CaSO4
  Glauberite       -1.26     -7.92   -6.67  Na2Ca(SO4)2
  Gypsum           -0.51     -5.47   -4.96  CaSO4:2H2O
  H2O(g)           -0.05     -0.05    0.00  H2O
  Halite           -0.97      0.61    1.58  NaCl
  Labile_S         -4.90    -10.57   -5.67  Na4Ca(SO4)3:2H2O
  Mirabilite       -3.38     -3.04    0.33  Na2SO4:10H2O
  Portlandite      -8.06    -13.25   -5.19  Ca(OH)2
  Thenardite       -1.82     -2.55   -0.73  Na2SO4

**For a gas, SI = log10(fugacity). Fugacity = pressure * phi / 1 atm.
  For ideal gases, phi = 1.

Reaction step 11.

Using solution 1.	
Using pure phase assemblage 1.	
Using reaction 1.	

Reaction 1.	

	  5.000e-01 moles of the following reaction have been added:

	                 Relative
	Reactant            moles

	NaCl                 1.00000

	                 Relative
	Element             moles
	Cl                   1.00000
	Na                   1.00000

-------------------------------Phase assemblage--------------------------------

                                                      Moles in assemblage
Phase               SI  log IAP  log K(T, P)   Initial       Final       Delta

Anhydrite         0.00    -5.37     -5.37    9.970e+00   9.970e+00   1.127e-04

-----------------------------Solution composition------------------------------

	Elements           Molality       Moles

	Ca                2.982e-02   2.982e-02
	Cl                3.500e+00   3.500e+00
	Na                3.500e+00   3.500e+00
	S                 2.982e-02   2.982e-02

----------------------------Description of solution----------------------------

                                       pH  =   6.674      Charge balance
                                       pe  =   4.000      Adjusted to redox equilibrium
      Specific Conductance (µS/cm, 100°C)  = 505767
                          Density (g/cm³)  =   1.08221
                               Volume (L)  =   1.11680
                        Viscosity (mPa s)  =   0.42987
                        Activity of water  =   0.873
                 Ionic strength (mol/kgw)  =   3.619e+00
                       Mass of water (kg)  =   1.000e+00
                 Total alkalinity (eq/kg)  =   5.690e-06
                         Temperature (°C)  = 100.00
                  Electrical balance (eq)  =  -5.690e-06
 Percent error, 100*(Cat-|An|)/(Cat+|An|)  =  -0.00
                               Iterations  =   7
                         Gamma iterations  =   3
                      Osmotic coefficient  =   1.07115
                         Density of water  =   0.95835
                                  Total H  = 1.110124e+02
                                  Total O  = 5.562552e+01

----------------------------Distribution of species----------------------------

                                                    MacInnes  MacInnes
                                MacInnes       Log       Log       Log    mole V
   Species          Molality    Activity  Molality  Activity     Gamma   cm³/mol

   OH-             5.971e-06   2.381e-06    -5.224    -5.623    -0.399      1.82
   H+              1.251e-07   2.117e-07    -6.903    -6.674     0.229      0.00
   H2O             5.551e+01   8.726e-01     1.744    -0.059     0.000     18.80
Ca            2.982e-02
   Ca+2            2.982e-02   1.105e-02    -1.525    -1.956    -0.431    -15.28
Cl            3.500e+00
   Cl-             3.500e+00   1.966e+00     0.544     0.294    -0.251     19.24
Na            3.500e+00
   Na+             3.500e+00   3.070e+00     0.544     0.487    -0.057      1.66
S(6)          2.982e-02
   SO4-2           2.982e-02   3.842e-04    -1.525    -3.415    -1.890     21.94
   HSO4-           1.552e-07   5.830e-08    -6.809    -7.234    -0.425     43.79

------------------------------Saturation indices-------------------------------

  Phase               SI** log IAP   log K(373 K,   1 atm)

  Anhydrite         0.00     -5.37   -5.37  CaSO4
  Glauberite       -1.15     -7.81   -6.67  Na2Ca(SO4)2
  Gypsum           -0.53     -5.49   -4.96  CaSO4:2H2O
  H2O(g)           -0.06     -0.06    0.00  H2O
  Halite           -0.80      0.78    1.58  NaCl
  Labile_S         -4.70    -10.37   -5.67  Na4Ca(SO4)3:2H2O
  Mirabilite       -3.37     -3.03    0.33  Na2SO4:10H2O
  Portlandite      -8.01    -13.20   -5.19  Ca(OH)2
  Thenardite       -1.72     -2.44   -0.73  Na2SO4

**For a gas, SI = log10(fugacity). Fugacity = pressure * phi / 1 atm.
  For ideal gases, phi = 1.

Reaction step 12.

Using solution 1.	
Using pure phase assemblage 1.	
Using reaction 1.	

Reaction 1.	

	  5.000e-01 moles of the following reaction have been added:

	                 Relative
	Reactant            moles

	NaCl                 1.00000

	                 Relative
	Element             moles
	Cl                   1.00000
	Na                   1.00000

-------------------------------Phase assemblage--------------------------------

                                                      Moles in assemblage
Phase               SI  log IAP  log K(T, P)   Initial       Final       Delta

Anhydrite         0.00    -5.37     -5.37    9.970e+00   9.971e+00   4.374e-04

-----------------------------Solution composition------------------------------

	Elements           Molality       Moles

	Ca                2.939e-02   2.939e-02
	Cl                4.000e+00   4.000e+00
	Na                4.000e+00   4.000e+00
	S                 2.939e-02   2.939e-02

----------------------------Description of solution----------------------------

                                       pH  =   6.662      Charge balance
                                       pe  =   4.000      Adjusted to redox equilibrium
      Specific Conductance (µS/cm, 100°C)  = 540086
                          Density (g/cm³)  =   1.09722
                               Volume (L)  =   1.12810
                        Viscosity (mPa s)  =   0.45451
                        Activity of water  =   0.852
                 Ionic strength (mol/kgw)  =   4.118e+00
                       Mass of water (kg)  =   1.000e+00
                 Total alkalinity (eq/kg)  =   5.690e-06
                         Temperature (°C)  = 100.00
                  Electrical balance (eq)  =  -5.690e-06
 Percent error, 100*(Cat-|An|)/(Cat+|An|)  =  -0.00
                               Iterations  =   6
                         Gamma iterations  =   3
                      Osmotic coefficient  =   1.10050
                         Density of water  =   0.95835
                                  Total H  = 1.110124e+02
                                  Total O  = 5.562377e+01

----------------------------Distribution of species----------------------------

                                                    MacInnes  MacInnes
                                MacInnes       Log       Log       Log    mole V
   Species          Molality    Activity  Molality  Activity     Gamma   cm³/mol

   OH-             5.938e-06   2.261e-06    -5.226    -5.646    -0.419      2.61
   H+              1.075e-07   2.178e-07    -6.969    -6.662     0.307      0.00
   H2O             5.551e+01   8.523e-01     1.744    -0.069     0.000     18.80
Ca            2.939e-02
   Ca+2            2.939e-02   1.336e-02    -1.532    -1.874    -0.342    -15.07
Cl            4.000e+00
   Cl-             4.000e+00   2.272e+00     0.602     0.356    -0.246     19.40
Na            4.000e+00
   Na+             4.000e+00   3.765e+00     0.602     0.576    -0.026      1.70
S(6)          2.939e-02
   SO4-2           2.939e-02   3.179e-04    -1.532    -3.498    -1.966     22.61
   HSO4-           1.399e-07   4.960e-08    -6.854    -7.305    -0.450     43.95

------------------------------Saturation indices-------------------------------

  Phase               SI** log IAP   log K(373 K,   1 atm)

  Anhydrite         0.00     -5.37   -5.37  CaSO4
  Glauberite       -1.05     -7.72   -6.67  Na2Ca(SO4)2
  Gypsum           -0.55     -5.51   -4.96  CaSO4:2H2O
  H2O(g)           -0.07     -0.07    0.00  H2O
  Halite           -0.65      0.93    1.58  NaCl
  Labile_S         -4.53    -10.20   -5.67  Na4Ca(SO4)3:2H2O
  Mirabilite       -3.37     -3.04    0.33  Na2SO4:10H2O
  Portlandite      -7.98    -13.17   -5.19  Ca(OH)2
  Thenardite       -1.62     -2.35   -0.73  Na2SO4

**For a gas, SI = log10(fugacity). Fugacity = pressure * phi / 1 atm.
  For ideal gases, phi = 1.

Reaction step 13.

Using solution 1.	
Using pure phase assemblage 1.	
Using reaction 1.	

Reaction 1.	

	  5.000e-01 moles of the following reaction have been added:

	                 Relative
	Reactant            moles

	NaCl                 1.00000

	                 Relative
	Element             moles
	Cl                   1.00000
	Na                   1.00000

-------------------------------Phase assemblage--------------------------------

                                                      Moles in assemblage
Phase               SI  log IAP  log K(T, P)   Initial       Final       Delta

Anhydrite         0.00    -5.37     -5.37    9.971e+00   9.971e+00   6.485e-04

-----------------------------Solution composition------------------------------

	Elements           Molality       Moles

	Ca                2.874e-02   2.874e-02
	Cl                4.500e+00   4.500e+00
	Na                4.500e+00   4.500e+00
	S                 2.874e-02   2.874e-02

----------------------------Description of solution----------------------------

                                       pH  =   6.649      Charge balance
                                       pe  =   4.000      Adjusted to redox equilibrium
      Specific Conductance (µS/cm, 100°C)  = 568640
                          Density (g/cm³)  =   1.11180
                               Volume (L)  =   1.13951
                        Viscosity (mPa s)  =   0.48025
                        Activity of water  =   0.832
                 Ionic strength (mol/kgw)  =   4.615e+00
                       Mass of water (kg)  =   1.000e+00
                 Total alkalinity (eq/kg)  =   5.690e-06
                         Temperature (°C)  = 100.00
                  Electrical balance (eq)  =  -5.691e-06
 Percent error, 100*(Cat-|An|)/(Cat+|An|)  =  -0.00
                               Iterations  =   6
                         Gamma iterations  =   3
                      Osmotic coefficient  =   1.12915
                         Density of water  =   0.95835
                                  Total H  = 1.110124e+02
                                  Total O  = 5.562118e+01

----------------------------Distribution of species----------------------------

                                                    MacInnes  MacInnes
                                MacInnes       Log       Log       Log    mole V
   Species          Molality    Activity  Molality  Activity     Gamma   cm³/mol

   OH-             5.910e-06   2.140e-06    -5.228    -5.670    -0.441      3.40
   H+              9.225e-08   2.246e-07    -7.035    -6.649     0.386      0.00
   H2O             5.551e+01   8.317e-01     1.744    -0.080     0.000     18.80
Ca            2.874e-02
   Ca+2            2.874e-02   1.607e-02    -1.542    -1.794    -0.252    -14.86
Cl            4.500e+00
   Cl-             4.500e+00   2.589e+00     0.653     0.413    -0.240     19.55
Na            4.500e+00
   Na+             4.500e+00   4.549e+00     0.653     0.658     0.005      1.74
S(6)          2.874e-02
   SO4-2           2.874e-02   2.643e-04    -1.542    -3.578    -2.036     23.25
   HSO4-           1.271e-07   4.253e-08    -6.896    -7.371    -0.476     44.09

------------------------------Saturation indices-------------------------------

  Phase               SI** log IAP   log K(373 K,   1 atm)

  Anhydrite         0.00     -5.37   -5.37  CaSO4
  Glauberite       -0.97     -7.63   -6.67  Na2Ca(SO4)2
  Gypsum           -0.57     -5.53   -4.96  CaSO4:2H2O
  H2O(g)           -0.09     -0.08    0.00  H2O
  Halite           -0.51      1.07    1.58  NaCl
  Labile_S         -4.38    -10.06   -5.67  Na4Ca(SO4)3:2H2O
  Mirabilite       -3.40     -3.06    0.33  Na2SO4:10H2O
  Portlandite      -7.94    -13.13   -5.19  Ca(OH)2
  Thenardite       -1.54     -2.26   -0.73  Na2SO4

**For a gas, SI = log10(fugacity). Fugacity = pressure * phi / 1 atm.
  For ideal gases, phi = 1.

Reaction step 14.

Using solution 1.	
Using pure phase assemblage 1.	
Using reaction 1.	

Reaction 1.	

	  5.000e-01 moles of the following reaction have been added:

	                 Relative
	Reactant            moles

	NaCl                 1.00000

	                 Relative
	Element             moles
	Cl                   1.00000
	Na                   1.00000

-------------------------------Phase assemblage--------------------------------

                                                      Moles in assemblage
Phase               SI  log IAP  log K(T, P)   Initial       Final       Delta

Anhydrite         0.00    -5.37     -5.37    9.971e+00   9.972e+00   7.732e-04

-----------------------------Solution composition------------------------------

	Elements           Molality       Moles

	Ca                2.797e-02   2.797e-02
	Cl                5.000e+00   5.000e+00
	Na                5.000e+00   5.000e+00
	S                 2.797e-02   2.797e-02

----------------------------Description of solution----------------------------

                                       pH  =   6.634      Charge balance
                                       pe  =   4.000      Adjusted to redox equilibrium
      Specific Conductance (µS/cm, 100°C)  = 592136
                          Density (g/cm³)  =   1.12598
                               Volume (L)  =   1.15102
                        Viscosity (mPa s)  =   0.50712
                        Activity of water  =   0.811
                 Ionic strength (mol/kgw)  =   5.112e+00
                       Mass of water (kg)  =   1.000e+00
                 Total alkalinity (eq/kg)  =   5.690e-06
                         Temperature (°C)  = 100.00
                  Electrical balance (eq)  =  -5.691e-06
 Percent error, 100*(Cat-|An|)/(Cat+|An|)  =  -0.00
                               Iterations  =   6
                         Gamma iterations  =   3
                      Osmotic coefficient  =   1.15694
                         Density of water  =   0.95835
                                  Total H  = 1.110124e+02
                                  Total O  = 5.561808e+01

----------------------------Distribution of species----------------------------

                                                    MacInnes  MacInnes
                                MacInnes       Log       Log       Log    mole V
   Species          Molality    Activity  Molality  Activity     Gamma   cm³/mol

   OH-             5.886e-06   2.015e-06    -5.230    -5.696    -0.465      4.16
   H+              7.925e-08   2.324e-07    -7.101    -6.634     0.467      0.00
   H2O             5.551e+01   8.109e-01     1.744    -0.091     0.000     18.80
Ca            2.797e-02
   Ca+2            2.797e-02   1.924e-02    -1.553    -1.716    -0.162    -14.66
Cl            5.000e+00
   Cl-             5.000e+00   2.916e+00     0.699     0.465    -0.234     19.68
Na            5.000e+00
   Na+             5.000e+00   5.432e+00     0.699     0.735     0.036      1.78
S(6)          2.797e-02
   SO4-2           2.797e-02   2.207e-04    -1.553    -3.656    -2.103     23.85
   HSO4-           1.165e-07   3.676e-08    -6.934    -7.435    -0.501     44.22

------------------------------Saturation indices-------------------------------

  Phase               SI** log IAP   log K(373 K,   1 atm)

  Anhydrite         0.00     -5.37   -5.37  CaSO4
  Glauberite       -0.89     -7.56   -6.67  Na2Ca(SO4)2
  Gypsum           -0.60     -5.55   -4.96  CaSO4:2H2O
  H2O(g)           -0.10     -0.09    0.00  H2O
  Halite           -0.38      1.20    1.58  NaCl
  Labile_S         -4.25     -9.93   -5.67  Na4Ca(SO4)3:2H2O
  Mirabilite       -3.43     -3.10    0.33  Na2SO4:10H2O
  Portlandite      -7.92    -13.11   -5.19  Ca(OH)2
  Thenardite       -1.46     -2.19   -0.73  Na2SO4

**For a gas, SI = log10(fugacity). Fugacity = pressure * phi / 1 atm.
  For ideal gases, phi = 1.

Reaction step 15.

Using solution 1.	
Using pure phase assemblage 1.	
Using reaction 1.	

Reaction 1.	

	  5.000e-01 moles of the following reaction have been added:

	                 Relative
	Reactant            moles

	NaCl                 1.00000

	                 Relative
	Element             moles
	Cl                   1.00000
	Na                   1.00000

-------------------------------Phase assemblage--------------------------------

                                                      Moles in assemblage
Phase               SI  log IAP  log K(T, P)   Initial       Final       Delta

Anhydrite         0.00    -5.37     -5.37    9.972e+00   9.973e+00   8.329e-04

-----------------------------Solution composition------------------------------

	Elements           Molality       Moles

	Ca                2.713e-02   2.713e-02
	Cl                5.500e+00   5.500e+00
	Na                5.500e+00   5.500e+00
	S                 2.713e-02   2.713e-02

----------------------------Description of solution----------------------------

                                       pH  =   6.617      Charge balance
                                       pe  =   4.000      Adjusted to redox equilibrium
      Specific Conductance (µS/cm, 100°C)  = 611193
                          Density (g/cm³)  =   1.13978
                               Volume (L)  =   1.16262
                        Viscosity (mPa s)  =   0.53513
                        Activity of water  =   0.790
                 Ionic strength (mol/kgw)  =   5.609e+00
                       Mass of water (kg)  =   1.000e+00
                 Total alkalinity (eq/kg)  =   5.690e-06
                         Temperature (°C)  = 100.00
                  Electrical balance (eq)  =  -5.692e-06
 Percent error, 100*(Cat-|An|)/(Cat+|An|)  =  -0.00
                               Iterations  =   6
                         Gamma iterations  =   3
                      Osmotic coefficient  =   1.18374
                         Density of water  =   0.95836
                                  Total H  = 1.110124e+02
                                  Total O  = 5.561475e+01

----------------------------Distribution of species----------------------------

                                                    MacInnes  MacInnes
                                MacInnes       Log       Log       Log    mole V
   Species          Molality    Activity  Molality  Activity     Gamma   cm³/mol

   OH-             5.866e-06   1.889e-06    -5.232    -5.724    -0.492      4.92
   H+              6.823e-08   2.416e-07    -7.166    -6.617     0.549      0.00
   H2O             5.551e+01   7.900e-01     1.744    -0.102     0.000     18.80
Ca            2.713e-02
   Ca+2            2.713e-02   2.294e-02    -1.567    -1.639    -0.073    -14.47
Cl            5.500e+00
   Cl-             5.500e+00   3.253e+00     0.740     0.512    -0.228     19.80
Na            5.500e+00
   Na+             5.500e+00   6.421e+00     0.740     0.808     0.067      1.82
S(6)          2.713e-02
   SO4-2           2.713e-02   1.851e-04    -1.567    -3.733    -2.166     24.42
   HSO4-           1.079e-07   3.205e-08    -6.967    -7.494    -0.527     44.34

------------------------------Saturation indices-------------------------------

  Phase               SI** log IAP   log K(373 K,   1 atm)

  Anhydrite         0.00     -5.37   -5.37  CaSO4
  Glauberite       -0.82     -7.49   -6.67  Na2Ca(SO4)2
  Gypsum           -0.62     -5.58   -4.96  CaSO4:2H2O
  H2O(g)           -0.11     -0.10    0.00  H2O
  Halite           -0.26      1.32    1.58  NaCl
  Labile_S         -4.14     -9.81   -5.67  Na4Ca(SO4)3:2H2O
  Mirabilite       -3.47     -3.14    0.33  Na2SO4:10H2O
  Portlandite      -7.90    -13.09   -5.19  Ca(OH)2
  Thenardite       -1.39     -2.12   -0.73  Na2SO4

**For a gas, SI = log10(fugacity). Fugacity = pressure * phi / 1 atm.
  For ideal gases, phi = 1.

Reaction step 16.

Using solution 1.	
Using pure phase assemblage 1.	
Using reaction 1.	

Reaction 1.	

	  5.000e-01 moles of the following reaction have been added:

	                 Relative
	Reactant            moles

	NaCl                 1.00000

	                 Relative
	Element             moles
	Cl                   1.00000
	Na                   1.00000

-------------------------------Phase assemblage--------------------------------

                                                      Moles in assemblage
Phase               SI  log IAP  log K(T, P)   Initial       Final       Delta

Anhydrite         0.00    -5.37     -5.37    9.973e+00   9.974e+00   8.444e-04

-----------------------------Solution composition------------------------------

	Elements           Molality       Moles

	Ca                2.629e-02   2.629e-02
	Cl                6.000e+00   6.000e+00
	Na                6.000e+00   6.000e+00
	S                 2.629e-02   2.629e-02

----------------------------Description of solution----------------------------

                                       pH  =   6.598      Charge balance
                                       pe  =   4.000      Adjusted to redox equilibrium
      Specific Conductance (µS/cm, 100°C)  = 626355
                          Density (g/cm³)  =   1.15322
                               Volume (L)  =   1.17431
                        Viscosity (mPa s)  =   0.56430
                        Activity of water  =   0.769
                 Ionic strength (mol/kgw)  =   6.105e+00
                       Mass of water (kg)  =   1.000e+00
                 Total alkalinity (eq/kg)  =   5.690e-06
                         Temperature (°C)  = 100.00
                  Electrical balance (eq)  =  -5.693e-06
 Percent error, 100*(Cat-|An|)/(Cat+|An|)  =  -0.00
                               Iterations  =   6
                         Gamma iterations  =   3
                      Osmotic coefficient  =   1.20946
                         Density of water  =   0.95836
                                  Total H  = 1.110124e+02
                                  Total O  = 5.561138e+01

----------------------------Distribution of species----------------------------

                                                    MacInnes  MacInnes
                                MacInnes       Log       Log       Log    mole V
   Species          Molality    Activity  Molality  Activity     Gamma   cm³/mol

   OH-             5.850e-06   1.760e-06    -5.233    -5.755    -0.522      5.67
   H+              5.892e-08   2.524e-07    -7.230    -6.598     0.632      0.00
   H2O             5.551e+01   7.690e-01     1.744    -0.114     0.000     18.80
Ca            2.629e-02
   Ca+2            2.629e-02   2.725e-02    -1.580    -1.565     0.016    -14.28
Cl            6.000e+00
   Cl-             6.000e+00   3.599e+00     0.778     0.556    -0.222     19.91
Na            6.000e+00
   Na+             6.000e+00   7.525e+00     0.778     0.876     0.098      1.85
S(6)          2.629e-02
   SO4-2           2.629e-02   1.559e-04    -1.580    -3.807    -2.227     24.97
   HSO4-           1.009e-07   2.820e-08    -6.996    -7.550    -0.554     44.44

------------------------------Saturation indices-------------------------------

  Phase               SI** log IAP   log K(373 K,   1 atm)

  Anhydrite         0.00     -5.37   -5.37  CaSO4
  Glauberite       -0.76     -7.43   -6.67  Na2Ca(SO4)2
  Gypsum           -0.64     -5.60   -4.96  CaSO4:2H2O
  H2O(g)           -0.12     -0.11    0.00  H2O
  Halite           -0.15      1.43    1.58  NaCl
  Labile_S         -4.04     -9.71   -5.67  Na4Ca(SO4)3:2H2O
  Mirabilite       -3.53     -3.19    0.33  Na2SO4:10H2O
  Portlandite      -7.88    -13.07   -5.19  Ca(OH)2
  Thenardite       -1.33     -2.05   -0.73  Na2SO4

**For a gas, SI = log10(fugacity). Fugacity = pressure * phi / 1 atm.
  For ideal gases, phi = 1.

------------------
End of simulation.
------------------

------------------------------------
Reading input data for simulation 2.
------------------------------------

	USE solution 1
	 USE equilibrium_phases 1
	 USE reaction 1
	REACTION_PRESSURE
	493
	END
-----------------------------------------
Beginning of batch-reaction calculations.
-----------------------------------------

Reaction step 1.

Using solution 1.	
Using pure phase assemblage 1.	
Using pressure 1.	
Using reaction 1.	

Reaction 1.	

	  0.000e+00 moles of the following reaction have been added:

	                 Relative
	Reactant            moles

	NaCl                 1.00000

	                 Relative
	Element             moles
	Cl                   1.00000
	Na                   1.00000

-------------------------------Phase assemblage--------------------------------

                                                      Moles in assemblage
Phase               SI  log IAP  log K(T, P)   Initial       Final       Delta

Anhydrite         0.00    -5.04     -5.04    1.000e+01   9.990e+00  -9.628e-03

-----------------------------Solution composition------------------------------

	Elements           Molality       Moles

	Ca                9.628e-03   9.628e-03
	S                 9.628e-03   9.628e-03

----------------------------Description of solution----------------------------

                                       pH  =   6.740      Charge balance
                                       pe  =   4.000      Adjusted to redox equilibrium
      Specific Conductance (µS/cm, 100°C)  = 5387
                          Density (g/cm³)  =   0.98161
                               Volume (L)  =   1.02007
                        Viscosity (mPa s)  =   0.29800
                        Activity of water  =   1.000
                 Ionic strength (mol/kgw)  =   3.851e-02
                       Mass of water (kg)  =   1.000e+00
                 Total alkalinity (eq/kg)  =   5.690e-06
                         Temperature (°C)  = 100.00
                           Pressure (atm)  = 493.00
                  Electrical balance (eq)  =  -5.690e-06
 Percent error, 100*(Cat-|An|)/(Cat+|An|)  =  -0.01
                               Iterations  =  14
                         Gamma iterations  =   4
                      Osmotic coefficient  =   0.66132
                         Density of water  =   0.98031
                                  Total H  = 1.110124e+02
                                  Total O  = 5.554473e+01

----------------------------Distribution of species----------------------------

                                                    MacInnes  MacInnes
                                MacInnes       Log       Log       Log    mole V
   Species          Molality    Activity  Molality  Activity     Gamma   cm³/mol

   OH-             6.214e-06   4.807e-06    -5.207    -5.318    -0.112     -7.42
   H+              2.210e-07   1.819e-07    -6.656    -6.740    -0.085      0.00
   H2O             5.551e+01   9.998e-01     1.744    -0.000     0.000     18.38
Ca            9.628e-03
   Ca+2            9.628e-03   3.106e-03    -2.016    -2.508    -0.491    -15.75
S(6)          9.628e-03
   SO4-2           9.627e-03   2.952e-03    -2.017    -2.530    -0.513     13.95
   HSO4-           3.030e-07   2.529e-07    -6.519    -6.597    -0.079     40.07

------------------------------Saturation indices-------------------------------

  Phase               SI** log IAP   log K(373 K, 493 atm)

  Anhydrite         0.00     -5.04   -5.04  CaSO4
  Gypsum           -0.35     -5.04   -4.69  CaSO4:2H2O
  H2O(g)            0.12     -0.00   -0.12  H2O
  Portlandite      -8.17    -13.14   -4.98  Ca(OH)2

**For a gas, SI = log10(fugacity). Fugacity = pressure * phi / 1 atm.
  For ideal gases, phi = 1.

Reaction step 2.

Using solution 1.	
Using pure phase assemblage 1.	
Using pressure 1.	
Using reaction 1.	

Reaction 1.	

	  2.000e-01 moles of the following reaction have been added:

	                 Relative
	Reactant            moles

	NaCl                 1.00000

	                 Relative
	Element             moles
	Cl                   1.00000
	Na                   1.00000

-------------------------------Phase assemblage--------------------------------

                                                      Moles in assemblage
Phase               SI  log IAP  log K(T, P)   Initial       Final       Delta

Anhydrite         0.00    -5.05     -5.05    9.990e+00   9.981e+00  -8.913e-03

-----------------------------Solution composition------------------------------

	Elements           Molality       Moles

	Ca                1.854e-02   1.854e-02
	Cl                2.000e-01   2.000e-01
	Na                2.000e-01   2.000e-01
	S                 1.854e-02   1.854e-02

----------------------------Description of solution----------------------------

                                       pH  =   6.662      Charge balance
                                       pe  =   4.000      Adjusted to redox equilibrium
      Specific Conductance (µS/cm, 100°C)  = 56702
                          Density (g/cm³)  =   0.99041
                               Volume (L)  =   1.02404
                        Viscosity (mPa s)  =   0.30591
                        Activity of water  =   0.993
                 Ionic strength (mol/kgw)  =   2.742e-01
                       Mass of water (kg)  =   1.000e+00
                 Total alkalinity (eq/kg)  =   5.690e-06
                         Temperature (°C)  = 100.00
                           Pressure (atm)  = 493.00
                  Electrical balance (eq)  =  -5.690e-06
 Percent error, 100*(Cat-|An|)/(Cat+|An|)  =  -0.00
                               Iterations  =  10
                         Gamma iterations  =   4
                      Osmotic coefficient  =   0.88668
                         Density of water  =   0.98031
                                  Total H  = 1.110124e+02
                                  Total O  = 5.558038e+01

----------------------------Distribution of species----------------------------

                                                    MacInnes  MacInnes
                                MacInnes       Log       Log       Log    mole V
   Species          Molality    Activity  Molality  Activity     Gamma   cm³/mol

   OH-             6.398e-06   3.934e-06    -5.194    -5.405    -0.211     -6.61
   H+              3.108e-07   2.179e-07    -6.508    -6.662    -0.154      0.00
   H2O             5.551e+01   9.930e-01     1.744    -0.003     0.000     18.38
Ca            1.854e-02
   Ca+2            1.854e-02   3.453e-03    -1.732    -2.462    -0.730    -14.79
Cl            2.000e-01
   Cl-             2.000e-01   1.340e-01    -0.699    -0.873    -0.174     17.56
Na            2.000e-01
   Na+             2.000e-01   1.399e-01    -0.699    -0.854    -0.155      2.14
S(6)          1.854e-02
   SO4-2           1.854e-02   2.567e-03    -1.732    -2.591    -0.859     15.11
   HSO4-           3.970e-07   2.661e-07    -6.401    -6.575    -0.174     40.58

------------------------------Saturation indices-------------------------------

  Phase               SI** log IAP   log K(373 K, 493 atm)

  Anhydrite         0.00     -5.05   -5.05  CaSO4
  Glauberite       -3.25     -9.35   -6.10  Na2Ca(SO4)2
  Gypsum           -0.36     -5.06   -4.70  CaSO4:2H2O
  H2O(g)            0.12     -0.00   -0.12  H2O
  Halite           -3.36     -1.73    1.63  NaCl
  Labile_S         -7.45    -13.66   -6.20  Na4Ca(SO4)3:2H2O
  Mirabilite       -4.75     -4.33    0.42  Na2SO4:10H2O
  Portlandite      -8.28    -13.27   -4.99  Ca(OH)2
  Thenardite       -3.81     -4.30   -0.49  Na2SO4

**For a gas, SI = log10(fugacity). Fugacity = pressure * phi / 1 atm.
  For ideal gases, phi = 1.

Reaction step 3.

Using solution 1.	
Using pure phase assemblage 1.	
Using pressure 1.	
Using reaction 1.	

Reaction 1.	

	  2.000e-01 moles of the following reaction have been added:

	                 Relative
	Reactant            moles

	NaCl                 1.00000

	                 Relative
	Element             moles
	Cl                   1.00000
	Na                   1.00000

-------------------------------Phase assemblage--------------------------------

                                                      Moles in assemblage
Phase               SI  log IAP  log K(T, P)   Initial       Final       Delta

Anhydrite         0.00    -5.06     -5.06    9.981e+00   9.977e+00  -4.564e-03

-----------------------------Solution composition------------------------------

	Elements           Molality       Moles

	Ca                2.310e-02   2.310e-02
	Cl                4.000e-01   4.000e-01
	Na                4.000e-01   4.000e-01
	S                 2.310e-02   2.310e-02

----------------------------Description of solution----------------------------

                                       pH  =   6.634      Charge balance
                                       pe  =   4.000      Adjusted to redox equilibrium
      Specific Conductance (µS/cm, 100°C)  = 99008
                          Density (g/cm³)  =   0.99841
                               Volume (L)  =   1.02815
                        Viscosity (mPa s)  =   0.31399
                        Activity of water  =   0.986
                 Ionic strength (mol/kgw)  =   4.924e-01
                       Mass of water (kg)  =   1.000e+00
                 Total alkalinity (eq/kg)  =   5.690e-06
                         Temperature (°C)  = 100.00
                           Pressure (atm)  = 493.00
                  Electrical balance (eq)  =  -5.690e-06
 Percent error, 100*(Cat-|An|)/(Cat+|An|)  =  -0.00
                               Iterations  =  11
                         Gamma iterations  =   4
                      Osmotic coefficient  =   0.89747
                         Density of water  =   0.98031
                                  Total H  = 1.110124e+02
                                  Total O  = 5.559864e+01

----------------------------Distribution of species----------------------------

                                                    MacInnes  MacInnes
                                MacInnes       Log       Log       Log    mole V
   Species          Molality    Activity  Molality  Activity     Gamma   cm³/mol

   OH-             6.426e-06   3.635e-06    -5.192    -5.440    -0.247     -6.07
   H+              3.333e-07   2.322e-07    -6.477    -6.634    -0.157      0.00
   H2O             5.551e+01   9.864e-01     1.744    -0.006     0.000     18.38
Ca            2.310e-02
   Ca+2            2.310e-02   3.905e-03    -1.636    -2.408    -0.772    -14.43
Cl            4.000e-01
   Cl-             4.000e-01   2.513e-01    -0.398    -0.600    -0.202     17.82
Na            4.000e-01
   Na+             4.000e-01   2.692e-01    -0.398    -0.570    -0.172      2.26
S(6)          2.310e-02
   SO4-2           2.310e-02   2.232e-03    -1.636    -2.651    -1.015     15.77
   HSO4-           4.026e-07   2.483e-07    -6.395    -6.605    -0.210     40.84

------------------------------Saturation indices-------------------------------

  Phase               SI** log IAP   log K(373 K, 493 atm)

  Anhydrite         0.00     -5.06   -5.06  CaSO4
  Glauberite       -2.73     -8.85   -6.12  Na2Ca(SO4)2
  Gypsum           -0.36     -5.07   -4.71  CaSO4:2H2O
  H2O(g)            0.12     -0.01   -0.12  H2O
  Halite           -2.80     -1.17    1.63  NaCl
  Labile_S         -6.43    -12.65   -6.22  Na4Ca(SO4)3:2H2O
  Mirabilite       -4.27     -3.85    0.42  Na2SO4:10H2O
  Portlandite      -8.28    -13.29   -5.00  Ca(OH)2
  Thenardite       -3.29     -3.79   -0.50  Na2SO4

**For a gas, SI = log10(fugacity). Fugacity = pressure * phi / 1 atm.
  For ideal gases, phi = 1.

Reaction step 4.

Using solution 1.	
Using pure phase assemblage 1.	
Using pressure 1.	
Using reaction 1.	

Reaction 1.	

	  2.000e-01 moles of the following reaction have been added:

	                 Relative
	Reactant            moles

	NaCl                 1.00000

	                 Relative
	Element             moles
	Cl                   1.00000
	Na                   1.00000

-------------------------------Phase assemblage--------------------------------

                                                      Moles in assemblage
Phase               SI  log IAP  log K(T, P)   Initial       Final       Delta

Anhydrite         0.00    -5.06     -5.06    9.977e+00   9.974e+00  -3.267e-03

-----------------------------Solution composition------------------------------

	Elements           Molality       Moles

	Ca                2.637e-02   2.637e-02
	Cl                6.000e-01   6.000e-01
	Na                6.000e-01   6.000e-01
	S                 2.637e-02   2.637e-02

----------------------------Description of solution----------------------------

                                       pH  =   6.617      Charge balance
                                       pe  =   4.000      Adjusted to redox equilibrium
      Specific Conductance (µS/cm, 100°C)  = 137896
                          Density (g/cm³)  =   1.00610
                               Volume (L)  =   1.03236
                        Viscosity (mPa s)  =   0.32198
                        Activity of water  =   0.980
                 Ionic strength (mol/kgw)  =   7.055e-01
                       Mass of water (kg)  =   1.000e+00
                 Total alkalinity (eq/kg)  =   5.690e-06
                         Temperature (°C)  = 100.00
                           Pressure (atm)  = 493.00
                  Electrical balance (eq)  =  -5.690e-06
 Percent error, 100*(Cat-|An|)/(Cat+|An|)  =  -0.00
                               Iterations  =   8
                         Gamma iterations  =   3
                      Osmotic coefficient  =   0.90790
                         Density of water  =   0.98031
                                  Total H  = 1.110124e+02
                                  Total O  = 5.561170e+01

----------------------------Distribution of species----------------------------

                                                    MacInnes  MacInnes
                                MacInnes       Log       Log       Log    mole V
[...]

	NaCl                 1.00000

	                 Relative
	Element             moles
	Cl                   1.00000
	Na                   1.00000

-------------------------------Phase assemblage--------------------------------

                                                      Moles in assemblage
Phase               SI  log IAP  log K(T, P)   Initial       Final       Delta

Anhydrite         0.00    -6.53     -6.53    9.977e+00   9.976e+00  -7.422e-04

-----------------------------Solution composition------------------------------

	Elements           Molality       Moles

	Ca                2.403e-02   2.403e-02
	Cl                4.000e+00   4.000e+00
	Na                4.000e+00   4.000e+00
	S                 2.403e-02   2.403e-02

----------------------------Description of solution----------------------------

                                       pH  =   5.741      Charge balance
                                       pe  =   4.000      Adjusted to redox equilibrium
      Specific Conductance (µS/cm, 200°C)  = 799482
                          Density (g/cm³)  =   1.06539
                               Volume (L)  =   1.16112
                        Viscosity (mPa s)  =   0.25618
                        Activity of water  =   0.865
                 Ionic strength (mol/kgw)  =   4.096e+00
                       Mass of water (kg)  =   1.000e+00
                 Total alkalinity (eq/kg)  =   5.690e-06
                         Temperature (°C)  = 200.00
                           Pressure (atm)  = 987.00
                  Electrical balance (eq)  =  -5.690e-06
 Percent error, 100*(Cat-|An|)/(Cat+|An|)  =  -0.00
                               Iterations  =   8
                         Gamma iterations  =   4
                      Osmotic coefficient  =   1.00157
                         Density of water  =   0.92373
                                  Total H  = 1.110124e+02
                                  Total O  = 5.560233e+01

----------------------------Distribution of species----------------------------

                                                    MacInnes  MacInnes
                                MacInnes       Log       Log       Log    mole V
   Species          Molality    Activity  Molality  Activity     Gamma   cm³/mol

   OH-             1.244e-05   4.630e-06    -4.905    -5.334    -0.429     -8.28
   H+              1.692e-06   1.814e-06    -5.771    -5.741     0.030      0.00
   H2O             5.551e+01   8.648e-01     1.744    -0.063     0.000     19.50
Ca            2.403e-02
   Ca+2            2.403e-02   2.910e-03    -1.619    -2.536    -0.917    -14.28
Cl            4.000e+00
   Cl-             4.000e+00   1.692e+00     0.602     0.228    -0.374     15.61
Na            4.000e+00
   Na+             4.000e+00   2.291e+00     0.602     0.360    -0.242      4.08
S(6)          2.403e-02
   SO4-2           2.402e-02   1.020e-04    -1.619    -3.991    -2.372      5.68
   HSO4-           5.062e-06   1.334e-06    -5.296    -5.875    -0.579     40.88

------------------------------Saturation indices-------------------------------

  Phase               SI** log IAP   log K(473 K, 987 atm)

  Anhydrite         0.00     -6.53   -6.53  CaSO4
  Glauberite       -1.43     -9.80   -8.37  Na2Ca(SO4)2
  Gypsum           -1.24     -6.65   -5.42  CaSO4:2H2O
  H2O(g)            1.30     -0.06   -1.37  H2O
  Halite           -0.69      0.59    1.27  NaCl
  Labile_S         -6.88    -13.20   -6.31  Na4Ca(SO4)3:2H2O
  Mirabilite       -2.63     -3.90   -1.27  Na2SO4:10H2O
  Portlandite      -8.36    -13.21   -4.85  Ca(OH)2
  Thenardite       -1.89     -3.27   -1.38  Na2SO4

**For a gas, SI = log10(fugacity). Fugacity = pressure * phi / 1 atm.
  For ideal gases, phi = 1.

Reaction step 13.

Using solution 1.	
Using pure phase assemblage 1.	
Using temperature 1.	
Using pressure 1.	
Using reaction 1.	

Reaction 1.	

	  5.000e-01 moles of the following reaction have been added:

	                 Relative
	Reactant            moles

	NaCl                 1.00000

	                 Relative
	Element             moles
	Cl                   1.00000
	Na                   1.00000

-------------------------------Phase assemblage--------------------------------

                                                      Moles in assemblage
Phase               SI  log IAP  log K(T, P)   Initial       Final       Delta

Anhydrite         0.00    -6.54     -6.54    9.976e+00   9.975e+00  -5.640e-04

-----------------------------Solution composition------------------------------

	Elements           Molality       Moles

	Ca                2.459e-02   2.459e-02
	Cl                4.500e+00   4.500e+00
	Na                4.500e+00   4.500e+00
	S                 2.459e-02   2.459e-02

----------------------------Description of solution----------------------------

                                       pH  =   5.720      Charge balance
                                       pe  =   4.000      Adjusted to redox equilibrium
      Specific Conductance (µS/cm, 200°C)  = 847496
                          Density (g/cm³)  =   1.08004
                               Volume (L)  =   1.17250
                        Viscosity (mPa s)  =   0.26940
                        Activity of water  =   0.847
                 Ionic strength (mol/kgw)  =   4.598e+00
                       Mass of water (kg)  =   1.000e+00
                 Total alkalinity (eq/kg)  =   5.690e-06
                         Temperature (°C)  = 200.00
                           Pressure (atm)  = 987.00
                  Electrical balance (eq)  =  -5.690e-06
 Percent error, 100*(Cat-|An|)/(Cat+|An|)  =  -0.00
                               Iterations  =   8
                         Gamma iterations  =   4
                      Osmotic coefficient  =   1.01891
                         Density of water  =   0.92375
                                  Total H  = 1.110124e+02
                                  Total O  = 5.560458e+01

----------------------------Distribution of species----------------------------

                                                    MacInnes  MacInnes
                                MacInnes       Log       Log       Log    mole V
   Species          Molality    Activity  Molality  Activity     Gamma   cm³/mol

   OH-             1.208e-05   4.209e-06    -4.918    -5.376    -0.458     -7.25
   H+              1.535e-06   1.904e-06    -5.814    -5.720     0.094      0.00
   H2O             5.551e+01   8.470e-01     1.744    -0.072     0.000     19.50
Ca            2.459e-02
   Ca+2            2.459e-02   3.350e-03    -1.609    -2.475    -0.866    -14.26
Cl            4.500e+00
   Cl-             4.500e+00   1.902e+00     0.653     0.279    -0.374     15.97
Na            4.500e+00
   Na+             4.500e+00   2.649e+00     0.653     0.423    -0.230      4.07
S(6)          2.459e-02
   SO4-2           2.459e-02   8.631e-05    -1.609    -4.064    -2.455      6.69
   HSO4-           4.853e-06   1.204e-06    -5.314    -5.919    -0.605     41.24

------------------------------Saturation indices-------------------------------

  Phase               SI** log IAP   log K(473 K, 987 atm)

  Anhydrite         0.00     -6.54   -6.54  CaSO4
  Glauberite       -1.36     -9.76   -8.40  Na2Ca(SO4)2
  Gypsum           -1.25     -6.68   -5.43  CaSO4:2H2O
  H2O(g)            1.30     -0.07   -1.37  H2O
  Halite           -0.57      0.70    1.27  NaCl
  Labile_S         -6.77    -13.12   -6.35  Na4Ca(SO4)3:2H2O
  Mirabilite       -2.66     -3.94   -1.28  Na2SO4:10H2O
  Portlandite      -8.35    -13.23   -4.87  Ca(OH)2
  Thenardite       -1.83     -3.22   -1.39  Na2SO4

**For a gas, SI = log10(fugacity). Fugacity = pressure * phi / 1 atm.
  For ideal gases, phi = 1.

Reaction step 14.

Using solution 1.	
Using pure phase assemblage 1.	
Using temperature 1.	
Using pressure 1.	
Using reaction 1.	

Reaction 1.	

	  5.000e-01 moles of the following reaction have been added:

	                 Relative
	Reactant            moles

	NaCl                 1.00000

	                 Relative
	Element             moles
	Cl                   1.00000
	Na                   1.00000

-------------------------------Phase assemblage--------------------------------

                                                      Moles in assemblage
Phase               SI  log IAP  log K(T, P)   Initial       Final       Delta

Anhydrite         0.00    -6.55     -6.55    9.975e+00   9.975e+00  -4.562e-04

-----------------------------Solution composition------------------------------

	Elements           Molality       Moles

	Ca                2.505e-02   2.505e-02
	Cl                5.000e+00   5.000e+00
	Na                5.000e+00   5.000e+00
	S                 2.505e-02   2.505e-02

----------------------------Description of solution----------------------------

                                       pH  =   5.696      Charge balance
                                       pe  =   4.000      Adjusted to redox equilibrium
      Specific Conductance (µS/cm, 200°C)  = 888313
                          Density (g/cm³)  =   1.09420
                               Volume (L)  =   1.18408
                        Viscosity (mPa s)  =   0.28290
                        Activity of water  =   0.829
                 Ionic strength (mol/kgw)  =   5.100e+00
                       Mass of water (kg)  =   1.000e+00
                 Total alkalinity (eq/kg)  =   5.690e-06
                         Temperature (°C)  = 200.00
                           Pressure (atm)  = 987.00
                  Electrical balance (eq)  =  -5.690e-06
 Percent error, 100*(Cat-|An|)/(Cat+|An|)  =  -0.00
                               Iterations  =   8
                         Gamma iterations  =   4
                      Osmotic coefficient  =   1.03488
                         Density of water  =   0.92376
                                  Total H  = 1.110124e+02
                                  Total O  = 5.560641e+01

----------------------------Distribution of species----------------------------

                                                    MacInnes  MacInnes
                                MacInnes       Log       Log       Log    mole V
   Species          Molality    Activity  Molality  Activity     Gamma   cm³/mol

   OH-             1.179e-05   3.801e-06    -4.928    -5.420    -0.492     -6.25
   H+              1.392e-06   2.012e-06    -5.856    -5.696     0.160      0.00
   H2O             5.551e+01   8.291e-01     1.744    -0.081     0.000     19.50
Ca            2.505e-02
   Ca+2            2.505e-02   3.835e-03    -1.601    -2.416    -0.815    -14.26
Cl            5.000e+00
   Cl-             5.000e+00   2.115e+00     0.699     0.325    -0.374     16.30
Na            5.000e+00
   Na+             5.000e+00   3.024e+00     0.699     0.481    -0.218      4.05
S(6)          2.505e-02
   SO4-2           2.504e-02   7.358e-05    -1.601    -4.133    -2.532      7.65
   HSO4-           4.711e-06   1.102e-06    -5.327    -5.958    -0.631     41.58

------------------------------Saturation indices-------------------------------

  Phase               SI** log IAP   log K(473 K, 987 atm)

  Anhydrite         0.00     -6.55   -6.55  CaSO4
  Glauberite       -1.31     -9.72   -8.42  Na2Ca(SO4)2
  Gypsum           -1.27     -6.71   -5.44  CaSO4:2H2O
  H2O(g)            1.29     -0.08   -1.37  H2O
  Halite           -0.46      0.81    1.27  NaCl
  Labile_S         -6.68    -13.06   -6.38  Na4Ca(SO4)3:2H2O
  Mirabilite       -2.69     -3.99   -1.29  Na2SO4:10H2O
  Portlandite      -8.36    -13.26   -4.89  Ca(OH)2
  Thenardite       -1.77     -3.17   -1.40  Na2SO4

**For a gas, SI = log10(fugacity). Fugacity = pressure * phi / 1 atm.
  For ideal gases, phi = 1.

Reaction step 15.

Using solution 1.	
Using pure phase assemblage 1.	
Using temperature 1.	
Using pressure 1.	
Using reaction 1.	

Reaction 1.	

	  5.000e-01 moles of the following reaction have been added:

	                 Relative
	Reactant            moles

	NaCl                 1.00000

	                 Relative
	Element             moles
	Cl                   1.00000
	Na                   1.00000

-------------------------------Phase assemblage--------------------------------

                                                      Moles in assemblage
Phase               SI  log IAP  log K(T, P)   Initial       Final       Delta

Anhydrite         0.00    -6.56     -6.56    9.975e+00   9.975e+00  -4.083e-04

-----------------------------Solution composition------------------------------

	Elements           Molality       Moles

	Ca                2.545e-02   2.545e-02
	Cl                5.500e+00   5.500e+00
	Na                5.500e+00   5.500e+00
	S                 2.545e-02   2.545e-02

----------------------------Description of solution----------------------------

                                       pH  =   5.669      Charge balance
                                       pe  =   4.000      Adjusted to redox equilibrium
      Specific Conductance (µS/cm, 200°C)  = 922799
                          Density (g/cm³)  =   1.10792
                               Volume (L)  =   1.19585
                        Viscosity (mPa s)  =   0.29670
                        Activity of water  =   0.811
                 Ionic strength (mol/kgw)  =   5.602e+00
                       Mass of water (kg)  =   1.000e+00
                 Total alkalinity (eq/kg)  =   5.690e-06
                         Temperature (°C)  = 200.00
                           Pressure (atm)  = 987.00
                  Electrical balance (eq)  =  -5.690e-06
 Percent error, 100*(Cat-|An|)/(Cat+|An|)  =  -0.00
                               Iterations  =   8
                         Gamma iterations  =   4
                      Osmotic coefficient  =   1.04931
                         Density of water  =   0.92377
                                  Total H  = 1.110124e+02
                                  Total O  = 5.560804e+01

----------------------------Distribution of species----------------------------

                                                    MacInnes  MacInnes
                                MacInnes       Log       Log       Log    mole V
   Species          Molality    Activity  Molality  Activity     Gamma   cm³/mol

   OH-             1.159e-05   3.408e-06    -4.936    -5.467    -0.532     -5.27
   H+              1.266e-06   2.143e-06    -5.898    -5.669     0.229      0.00
   H2O             5.551e+01   8.115e-01     1.744    -0.091     0.000     19.50
Ca            2.545e-02
   Ca+2            2.545e-02   4.364e-03    -1.594    -2.360    -0.766    -14.26
Cl            5.500e+00
   Cl-             5.500e+00   2.332e+00     0.740     0.368    -0.373     16.61
Na            5.500e+00
   Na+             5.500e+00   3.413e+00     0.740     0.533    -0.207      4.03
S(6)          2.545e-02
   SO4-2           2.545e-02   6.318e-05    -1.594    -4.199    -2.605      8.56
   HSO4-           4.636e-06   1.023e-06    -5.334    -5.990    -0.656     41.89

------------------------------Saturation indices-------------------------------

  Phase               SI** log IAP   log K(473 K, 987 atm)

  Anhydrite         0.00     -6.56   -6.56  CaSO4
  Glauberite       -1.26     -9.69   -8.44  Na2Ca(SO4)2
  Gypsum           -1.29     -6.74   -5.45  CaSO4:2H2O
  H2O(g)            1.28     -0.09   -1.37  H2O
  Halite           -0.36      0.90    1.26  NaCl
  Labile_S         -6.60    -13.01   -6.41  Na4Ca(SO4)3:2H2O
  Mirabilite       -2.74     -4.04   -1.30  Na2SO4:10H2O
  Portlandite      -8.38    -13.30   -4.92  Ca(OH)2
  Thenardite       -1.72     -3.13   -1.41  Na2SO4

**For a gas, SI = log10(fugacity). Fugacity = pressure * phi / 1 atm.
  For ideal gases, phi = 1.

Reaction step 16.

Using solution 1.	
Using pure phase assemblage 1.	
Using temperature 1.	
Using pressure 1.	
Using reaction 1.	

Reaction 1.	

	  5.000e-01 moles of the following reaction have been added:

	                 Relative
	Reactant            moles

	NaCl                 1.00000

	                 Relative
	Element             moles
	Cl                   1.00000
	Na                   1.00000

-------------------------------Phase assemblage--------------------------------

                                                      Moles in assemblage
Phase               SI  log IAP  log K(T, P)   Initial       Final       Delta

Anhydrite         0.00    -6.57     -6.57    9.975e+00   9.974e+00  -4.121e-04

-----------------------------Solution composition------------------------------

	Elements           Molality       Moles

	Ca                2.587e-02   2.587e-02
	Cl                6.000e+00   6.000e+00
	Na                6.000e+00   6.000e+00
	S                 2.587e-02   2.587e-02

----------------------------Description of solution----------------------------

                                       pH  =   5.638      Charge balance
                                       pe  =   4.000      Adjusted to redox equilibrium
      Specific Conductance (µS/cm, 200°C)  = 951698
                          Density (g/cm³)  =   1.12121
                               Volume (L)  =   1.20779
                        Viscosity (mPa s)  =   0.31080
                        Activity of water  =   0.794
                 Ionic strength (mol/kgw)  =   6.103e+00
                       Mass of water (kg)  =   1.000e+00
                 Total alkalinity (eq/kg)  =   5.690e-06
                         Temperature (°C)  = 200.00
                           Pressure (atm)  = 987.00
                  Electrical balance (eq)  =  -5.690e-06
 Percent error, 100*(Cat-|An|)/(Cat+|An|)  =  -0.00
                               Iterations  =   8
                         Gamma iterations  =   4
                      Osmotic coefficient  =   1.06206
                         Density of water  =   0.92379
                                  Total H  = 1.110124e+02
                                  Total O  = 5.560969e+01

----------------------------Distribution of species----------------------------

                                                    MacInnes  MacInnes
                                MacInnes       Log       Log       Log    mole V
   Species          Molality    Activity  Molality  Activity     Gamma   cm³/mol

   OH-             1.147e-05   3.033e-06    -4.940    -5.518    -0.578     -4.31
   H+              1.154e-06   2.299e-06    -5.938    -5.638     0.299      0.00
   H2O             5.551e+01   7.941e-01     1.744    -0.100     0.000     19.50
Ca            2.587e-02
   Ca+2            2.587e-02   4.939e-03    -1.587    -2.306    -0.719    -14.27
Cl            6.000e+00
   Cl-             6.000e+00   2.550e+00     0.778     0.407    -0.372     16.89
Na            6.000e+00
   Na+             6.000e+00   3.816e+00     0.778     0.582    -0.197      4.01
S(6)          2.587e-02
   SO4-2           2.586e-02   5.461e-05    -1.587    -4.263    -2.675      9.44
   HSO4-           4.627e-06   9.629e-07    -5.335    -6.016    -0.682     42.18

------------------------------Saturation indices-------------------------------

  Phase               SI** log IAP   log K(473 K, 987 atm)

  Anhydrite         0.00     -6.57   -6.57  CaSO4
  Glauberite       -1.21     -9.67   -8.45  Na2Ca(SO4)2
  Gypsum           -1.31     -6.77   -5.46  CaSO4:2H2O
  H2O(g)            1.27     -0.10   -1.37  H2O
  Halite           -0.27      0.99    1.26  NaCl
  Labile_S         -6.53    -12.97   -6.43  Na4Ca(SO4)3:2H2O
  Mirabilite       -2.79     -4.10   -1.31  Na2SO4:10H2O
  Portlandite      -8.40    -13.34   -4.94  Ca(OH)2
  Thenardite       -1.68     -3.10   -1.42  Na2SO4

**For a gas, SI = log10(fugacity). Fugacity = pressure * phi / 1 atm.
  For ideal gases, phi = 1.

------------------
End of simulation.
------------------

-------------------------------------
Reading input data for simulation 10.
-------------------------------------

