WARNING: Database file from DATABASE keyword is used; command line argument ignored.
   Input file: Anhy_NaCl_T&P
  Output file: Anhy_NaCl_T&P.out
Database file: ../database/phreeqc.dat

------------------
Reading data base.
------------------

	SOLUTION_MASTER_SPECIES
	SOLUTION_SPECIES
	PHASES
	GAS_BINARY_PARAMETERS
	EXCHANGE_MASTER_SPECIES
	EXCHANGE_SPECIES
	SURFACE_MASTER_SPECIES
	SURFACE_SPECIES
	MEAN_GAMMAS
	RATES
	END
------------------------------------
Reading input data for simulation 1.
------------------------------------

	DATABASE ../database/phreeqc.dat
	SELECTED_OUTPUT 101
	    file                 Anhy_NaCl_T&P_101.sel
	USER_PUNCH 101
	    headings Mu SC
	    start
	10 PUNCH STR_F$(MU, 20, 12)
	20 PUNCH STR_F$(SC, 20, 10)
	    end
	SOLUTION 1
	pH 7 charge
	temp 100
	EQUILIBRIUM_PHASES 1
	Anhydrite
	REACTION 1
	 NaCl 1
	 0 1e-5 5*0.02 0.1 12*0.2 6*1
	INCREMENTAL_REACTIONS true
	USER_GRAPH
	-chart_title "Anhydrite solubility"
	-axis_titles "NaCl / (mol/kgw)" "CaSO4 / (mol/kgw)"
	-axis_scale x_axis 0 8.5
	-axis_scale y_axis 0 0.05
	-connect_simulations false
	10 plot_xy tot("Na"), tot("Ca"), symbol = None
	END
-------------------------------------------
Beginning of initial solution calculations.
-------------------------------------------

Initial solution 1.	

-----------------------------Solution composition------------------------------

	Elements           Molality       Moles

	Pure water     

----------------------------Description of solution----------------------------

                                       pH  =   6.119      Charge balance
                                       pe  =   4.000    
      Specific Conductance (ÂµS/cm, 100Â°C)  = 0
                          Density (g/cmÂł)  =   0.95835
                               Volume (L)  =   1.04346
                        Viscosity (mPa s)  =   0.28158
                        Activity of water  =   1.000
                 Ionic strength (mol/kgw)  =   7.610e-07
                       Mass of water (kg)  =   1.000e+00
                 Total alkalinity (eq/kg)  =  -1.160e-16
                         Temperature (Â°C)  = 100.00
                  Electrical balance (eq)  =   1.160e-16
 Percent error, 100*(Cat-|An|)/(Cat+|An|)  =   0.00
                               Iterations  =   5
                                  Total H  = 1.110124e+02
                                  Total O  = 5.550622e+01

----------------------------Distribution of species----------------------------

                                               Log       Log       Log    mole V
   Species          Molality    Activity  Molality  Activity     Gamma   cmÂł/mol

   H+              7.610e-07   7.601e-07    -6.119    -6.119    -0.001      0.00
   OH-             7.610e-07   7.601e-07    -6.119    -6.119    -0.001     -5.96
   H2O             5.551e+01   1.000e+00     1.744    -0.000     0.000     18.80
H(0)          4.504e-24
   H2              2.252e-24   2.252e-24   -23.647   -23.647     0.000     18.32
O(0)          1.633e-26
   O2              8.164e-27   8.164e-27   -26.088   -26.088     0.000     33.90

------------------------------Saturation indices-------------------------------

  Phase               SI** log IAP   log K(373 K,   1 atm)

  H2(g)           -20.56    -23.65   -3.09  H2
  H2O(g)           -0.00     -0.00    0.00  H2O
  O2(g)           -22.97    -26.09   -3.11  O2

**For a gas, SI = log10(fugacity). Fugacity = pressure * phi / 1 atm.
  For ideal gases, phi = 1.

-----------------------------------------
Beginning of batch-reaction calculations.
-----------------------------------------

Reaction step 1.

Using solution 1.	
Using pure phase assemblage 1.	
Using reaction 1.	

Reaction 1.	

	  0.000e+00 moles of the following reaction have been added:

	                 Relative
	Reactant            moles

	NaCl                 1.00000

	                 Relative
	Element             moles
	Cl                   1.00000
	Na                   1.00000

-------------------------------Phase assemblage--------------------------------

                                                      Moles in assemblage
Phase               SI  log IAP  log K(T, P)   Initial       Final       Delta

Anhydrite         0.00    -5.64     -5.64    1.000e+01   9.995e+00  -5.487e-03

-----------------------------Solution composition------------------------------

	Elements           Molality       Moles

	Ca                5.487e-03   5.487e-03
	S                 5.487e-03   5.487e-03

----------------------------Description of solution----------------------------

                                       pH  =   6.278      Charge balance
                                       pe  =   6.752      Adjusted to redox equilibrium
      Specific Conductance (ÂµS/cm, 100Â°C)  = 1745
                          Density (g/cmÂł)  =   0.95905
                               Volume (L)  =   1.04348
                        Viscosity (mPa s)  =   0.28272
                        Activity of water  =   1.000
                 Ionic strength (mol/kgw)  =   9.620e-03
                       Mass of water (kg)  =   1.000e+00
                 Total alkalinity (eq/kg)  =  -6.818e-16
                         Temperature (Â°C)  = 100.00
                  Electrical balance (eq)  =  -8.001e-11
 Percent error, 100*(Cat-|An|)/(Cat+|An|)  =  -0.00
                               Iterations  =  12
                                  Total H  = 1.110124e+02
                                  Total O  = 5.552817e+01

----------------------------Distribution of species----------------------------

                                               Log       Log       Log    mole V
   Species          Molality    Activity  Molality  Activity     Gamma   cmÂł/mol

   OH-             1.238e-06   1.097e-06    -5.907    -5.960    -0.053     -5.75
   H+              5.845e-07   5.267e-07    -6.233    -6.278    -0.045      0.00
   H2O             5.551e+01   9.999e-01     1.744    -0.000     0.000     18.80
Ca            5.487e-03
   CaSO4           3.082e-03   3.085e-03    -2.511    -2.511     0.000     10.99
   Ca+2            2.405e-03   1.517e-03    -2.619    -2.819    -0.200    -19.35
   CaHSO4+         1.172e-08   1.040e-08    -7.931    -7.983    -0.052     (0)  
   CaOH+           5.387e-10   4.781e-10    -9.269    -9.321    -0.052     (0)  
H(0)          6.759e-30
   H2              3.379e-30   3.387e-30   -29.471   -29.470     0.001     18.32
O(0)          7.198e-15
   O2              3.599e-15   3.607e-15   -14.444   -14.443     0.001     33.90
S(-2)         0.000e+00
   H2S             0.000e+00   0.000e+00   -88.312   -88.311     0.001     46.17
   HS-             0.000e+00   0.000e+00   -88.501   -88.553    -0.053     19.96
   S-2             0.000e+00   0.000e+00   -93.209   -93.410    -0.202     (0)  
   (H2S)2          0.000e+00   0.000e+00  -177.456  -177.455     0.001     24.22
S(6)          5.487e-03
   CaSO4           3.082e-03   3.085e-03    -2.511    -2.511     0.000     10.99
   SO4-2           2.404e-03   1.510e-03    -2.619    -2.821    -0.202     12.68
   HSO4-           6.423e-07   5.700e-07    -6.192    -6.244    -0.052     40.87
   CaHSO4+         1.172e-08   1.040e-08    -7.931    -7.983    -0.052     (0)  

------------------------------Saturation indices-------------------------------

  Phase               SI** log IAP   log K(373 K,   1 atm)

  Anhydrite         0.00     -5.64   -5.64  CaSO4
  Gypsum           -0.39     -5.64   -5.25  CaSO4:2H2O
  H2(g)           -26.38    -29.47   -3.09  H2
  H2O(g)           -0.01     -0.00    0.00  H2O
  H2S(g)          -86.83    -94.83   -8.00  H2S
  O2(g)           -11.33    -14.44   -3.11  O2
  Sulfur          -65.73    -62.25    3.48  S

**For a gas, SI = log10(fugacity). Fugacity = pressure * phi / 1 atm.
  For ideal gases, phi = 1.

Reaction step 2.

Using solution 1.	
Using pure phase assemblage 1.	
Using reaction 1.	

Reaction 1.	

	  1.000e-05 moles of the following reaction have been added:

	                 Relative
	Reactant            moles

	NaCl                 1.00000

	                 Relative
	Element             moles
	Cl                   1.00000
	Na                   1.00000

-------------------------------Phase assemblage--------------------------------

                                                      Moles in assemblage
Phase               SI  log IAP  log K(T, P)   Initial       Final       Delta

Anhydrite         0.00    -5.64     -5.64    9.995e+00   9.995e+00  -7.574e-07

-----------------------------Solution composition------------------------------

	Elements           Molality       Moles

	Ca                5.488e-03   5.488e-03
	Cl                1.000e-05   1.000e-05
	Na                1.000e-05   1.000e-05
	S                 5.488e-03   5.488e-03

----------------------------Description of solution----------------------------

                                       pH  =   6.278      Charge balance
                                       pe  =   6.790      Adjusted to redox equilibrium
      Specific Conductance (ÂµS/cm, 100Â°C)  = 1749
                          Density (g/cmÂł)  =   0.95905
                               Volume (L)  =   1.04348
                        Viscosity (mPa s)  =   0.28271
                        Activity of water  =   1.000
                 Ionic strength (mol/kgw)  =   9.633e-03
                       Mass of water (kg)  =   1.000e+00
                 Total alkalinity (eq/kg)  =  -6.813e-16
                         Temperature (Â°C)  = 100.00
                  Electrical balance (eq)  =  -8.003e-11
 Percent error, 100*(Cat-|An|)/(Cat+|An|)  =  -0.00
                               Iterations  =   6
                                  Total H  = 1.110124e+02
                                  Total O  = 5.552817e+01

----------------------------Distribution of species----------------------------

                                               Log       Log       Log    mole V
   Species          Molality    Activity  Molality  Activity     Gamma   cmÂł/mol

   OH-             1.238e-06   1.097e-06    -5.907    -5.960    -0.053     -5.75
   H+              5.845e-07   5.267e-07    -6.233    -6.278    -0.045      0.00
   H2O             5.551e+01   9.999e-01     1.744    -0.000     0.000     18.80
Ca            5.488e-03
   CaSO4           3.082e-03   3.085e-03    -2.511    -2.511     0.000     10.99
   Ca+2            2.406e-03   1.518e-03    -2.619    -2.819    -0.200    -19.35
   CaHSO4+         1.172e-08   1.040e-08    -7.931    -7.983    -0.052     (0)  
   CaOH+           5.388e-10   4.781e-10    -9.269    -9.320    -0.052     (0)  
Cl            1.000e-05
   Cl-             1.000e-05   8.865e-06    -5.000    -5.052    -0.052     16.30
   HCl             1.001e-12   1.010e-12   -12.000   -11.996     0.004     23.04
H(0)          5.664e-30
   H2              2.832e-30   2.839e-30   -29.548   -29.547     0.001     18.32
Na            1.000e-05
   Na+             9.706e-06   8.631e-06    -5.013    -5.064    -0.051      0.42
   NaSO4-          2.939e-07   2.609e-07    -6.532    -6.583    -0.052     13.63
   Na2SO4          3.047e-13   3.053e-13   -12.516   -12.515     0.001     29.73
O(0)          1.025e-14
   O2              5.125e-15   5.136e-15   -14.290   -14.289     0.001     33.90
S(-2)         0.000e+00
   H2S             0.000e+00   0.000e+00   -88.619   -88.618     0.001     46.17
   HS-             0.000e+00   0.000e+00   -88.808   -88.860    -0.053     19.96
   S-2             0.000e+00   0.000e+00   -93.515   -93.717    -0.202     (0)  
   (H2S)2          0.000e+00   0.000e+00  -178.070  -178.069     0.001     24.22
S(6)          5.488e-03
   CaSO4           3.082e-03   3.085e-03    -2.511    -2.511     0.000     10.99
   SO4-2           2.405e-03   1.510e-03    -2.619    -2.821    -0.202     12.68
   HSO4-           6.423e-07   5.700e-07    -6.192    -6.244    -0.052     40.87
   NaSO4-          2.939e-07   2.609e-07    -6.532    -6.583    -0.052     13.63
   CaHSO4+         1.172e-08   1.040e-08    -7.931    -7.983    -0.052     (0)  
   Na2SO4          3.047e-13   3.053e-13   -12.516   -12.515     0.001     29.73

------------------------------Saturation indices-------------------------------

  Phase               SI** log IAP   log K(373 K,   1 atm)

  Anhydrite         0.00     -5.64   -5.64  CaSO4
  Gypsum           -0.39     -5.64   -5.25  CaSO4:2H2O
  H2(g)           -26.46    -29.55   -3.09  H2
  H2O(g)           -0.01     -0.00    0.00  H2O
  H2S(g)          -87.14    -95.14   -8.00  H2S
  Halite          -11.73    -10.12    1.62  NaCl
  Mirabilite      -18.48    -12.95    5.53  Na2SO4:10H2O
  O2(g)           -11.17    -14.29   -3.11  O2
  Sulfur          -65.96    -62.48    3.48  S
  Thenardite      -12.44    -12.95   -0.51  Na2SO4

**For a gas, SI = log10(fugacity). Fugacity = pressure * phi / 1 atm.
  For ideal gases, phi = 1.

Reaction step 3.

Using solution 1.	
Using pure phase assemblage 1.	
Using reaction 1.	

Reaction 1.	

	  2.000e-02 moles of the following reaction have been added:

	                 Relative
	Reactant            moles

	NaCl                 1.00000

	                 Relative
	Element             moles
	Cl                   1.00000
	Na                   1.00000

-------------------------------Phase assemblage--------------------------------

                                                      Moles in assemblage
Phase               SI  log IAP  log K(T, P)   Initial       Final       Delta

Anhydrite         0.00    -5.64     -5.64    9.995e+00   9.993e+00  -1.111e-03

-----------------------------Solution composition------------------------------

	Elements           Molality       Moles

	Ca                6.598e-03   6.598e-03
	Cl                2.001e-02   2.001e-02
	Na                2.001e-02   2.001e-02
	S                 6.598e-03   6.598e-03

----------------------------Description of solution----------------------------

                                       pH  =   6.265      Charge balance
                                       pe  =   6.768      Adjusted to redox equilibrium
      Specific Conductance (ÂµS/cm, 100Â°C)  = 8307
                          Density (g/cmÂł)  =   0.96000
                               Volume (L)  =   1.04382
                        Viscosity (mPa s)  =   0.28338
                        Activity of water  =   0.999
                 Ionic strength (mol/kgw)  =   3.302e-02
                       Mass of water (kg)  =   1.000e+00
                 Total alkalinity (eq/kg)  =  -6.751e-16
                         Temperature (Â°C)  = 100.00
                  Electrical balance (eq)  =  -8.003e-11
 Percent error, 100*(Cat-|An|)/(Cat+|An|)  =  -0.00
                               Iterations  =   8
                                  Total H  = 1.110124e+02
                                  Total O  = 5.553261e+01

----------------------------Distribution of species----------------------------

                                               Log       Log       Log    mole V
   Species          Molality    Activity  Molality  Activity     Gamma   cmÂł/mol

   OH-             1.307e-06   1.064e-06    -5.884    -5.973    -0.090     -5.56
   H+              6.374e-07   5.427e-07    -6.196    -6.265    -0.070      0.00
   H2O             5.551e+01   9.992e-01     1.744    -0.000     0.000     18.80
Ca            6.598e-03
   Ca+2            3.524e-03   1.659e-03    -2.453    -2.780    -0.327    -18.90
   CaSO4           3.075e-03   3.085e-03    -2.512    -2.511     0.001     10.99
   CaHSO4+         1.307e-08   1.071e-08    -7.884    -7.970    -0.086     (0)  
   CaOH+           6.183e-10   5.068e-10    -9.209    -9.295    -0.086     (0)  
Cl            2.001e-02
   Cl-             2.001e-02   1.632e-02    -1.699    -1.787    -0.088     16.47
   HCl             1.856e-09   1.917e-09    -8.731    -8.717     0.014     23.04
H(0)          6.624e-30
   H2              3.312e-30   3.338e-30   -29.480   -29.476     0.003     18.32
Na            2.001e-02
   Na+             1.947e-02   1.603e-02    -1.711    -1.795    -0.084      0.55
   NaSO4-          5.407e-04   4.435e-04    -3.267    -3.353    -0.086     14.36
   Na2SO4          9.577e-07   9.641e-07    -6.019    -6.016     0.003     29.73
O(0)          7.360e-15
   O2              3.680e-15   3.708e-15   -14.434   -14.431     0.003     33.90
S(-2)         0.000e+00
   H2S             0.000e+00   0.000e+00   -88.351   -88.348     0.003     46.17
   HS-             0.000e+00   0.000e+00   -88.513   -88.603    -0.090     20.13
   S-2             0.000e+00   0.000e+00   -93.140   -93.473    -0.333     (0)  
   (H2S)2          0.000e+00   0.000e+00  -177.532  -177.528     0.003     24.22
S(6)          6.598e-03
   CaSO4           3.075e-03   3.085e-03    -2.512    -2.511     0.001     10.99
   SO4-2           2.982e-03   1.382e-03    -2.526    -2.860    -0.334     12.91
   NaSO4-          5.407e-04   4.435e-04    -3.267    -3.353    -0.086     14.36
   Na2SO4          9.577e-07   9.641e-07    -6.019    -6.016     0.003     29.73
   HSO4-           6.555e-07   5.373e-07    -6.183    -6.270    -0.086     41.03
   CaHSO4+         1.307e-08   1.071e-08    -7.884    -7.970    -0.086     (0)  

------------------------------Saturation indices-------------------------------

  Phase               SI** log IAP   log K(373 K,   1 atm)

  Anhydrite         0.00     -5.64   -5.64  CaSO4
  Gypsum           -0.39     -5.64   -5.25  CaSO4:2H2O
  H2(g)           -26.39    -29.48   -3.09  H2
  H2O(g)           -0.01     -0.00    0.00  H2O
  H2S(g)          -86.87    -94.87   -8.00  H2S
  Halite           -5.20     -3.58    1.62  NaCl
  Mirabilite      -11.99     -6.45    5.53  Na2SO4:10H2O
  O2(g)           -11.32    -14.43   -3.11  O2
  Sulfur          -65.76    -62.28    3.48  S
  Thenardite       -5.94     -6.45   -0.51  Na2SO4

**For a gas, SI = log10(fugacity). Fugacity = pressure * phi / 1 atm.
  For ideal gases, phi = 1.

Reaction step 4.

Using solution 1.	
Using pure phase assemblage 1.	
Using reaction 1.	

Reaction 1.	

	  2.000e-02 moles of the following reaction have been added:

	                 Relative
	Reactant            moles

	NaCl                 1.00000

	                 Relative
	Element             moles
	Cl                   1.00000
	Na                   1.00000

-------------------------------Phase assemblage--------------------------------

                                                      Moles in assemblage
Phase               SI  log IAP  log K(T, P)   Initial       Final       Delta

Anhydrite         0.00    -5.64     -5.64    9.993e+00   9.993e+00  -8.127e-04

-----------------------------Solution composition------------------------------

	Elements           Molality       Moles

	Ca                7.411e-03   7.411e-03
	Cl                4.001e-02   4.001e-02
	Na                4.001e-02   4.001e-02
	S                 7.411e-03   7.411e-03

----------------------------Description of solution----------------------------

                                       pH  =   6.257      Charge balance
                                       pe  =   6.618      Adjusted to redox equilibrium
      Specific Conductance (ÂµS/cm, 100Â°C)  = 14141
                          Density (g/cmÂł)  =   0.96091
                               Volume (L)  =   1.04416
                        Viscosity (mPa s)  =   0.28427
                        Activity of water  =   0.998
                 Ionic strength (mol/kgw)  =   5.533e-02
                       Mass of water (kg)  =   1.000e+00
                 Total alkalinity (eq/kg)  =  -6.627e-16
                         Temperature (Â°C)  = 100.00
                  Electrical balance (eq)  =  -8.003e-11
 Percent error, 100*(Cat-|An|)/(Cat+|An|)  =  -0.00
                               Iterations  =   5
                                  Total H  = 1.110124e+02
                                  Total O  = 5.553586e+01

----------------------------Distribution of species----------------------------

                                               Log       Log       Log    mole V
   Species          Molality    Activity  Molality  Activity     Gamma   cmÂł/mol

   OH-             1.343e-06   1.042e-06    -5.872    -5.982    -0.110     -5.42
   H+              6.682e-07   5.534e-07    -6.175    -6.257    -0.082      0.00
   H2O             5.551e+01   9.985e-01     1.744    -0.001     0.000     18.80
Ca            7.411e-03
   Ca+2            4.344e-03   1.756e-03    -2.362    -2.756    -0.393    -18.66
   CaSO4           3.068e-03   3.085e-03    -2.513    -2.511     0.002     10.99
   CaHSO4+         1.389e-08   1.093e-08    -7.857    -7.962    -0.104     (0)  
   CaOH+           6.684e-10   5.257e-10    -9.175    -9.279    -0.104     (0)  
Cl            4.001e-02
   Cl-             4.001e-02   3.118e-02    -1.398    -1.506    -0.108     16.57
   HCl             3.536e-09   3.733e-09    -8.451    -8.428     0.024     23.04
H(0)          1.366e-29
   H2              6.829e-30   6.921e-30   -29.166   -29.160     0.006     18.32
Na            4.001e-02
   Na+             3.898e-02   3.084e-02    -1.409    -1.511    -0.102      0.62
   NaSO4-          1.024e-03   8.060e-04    -2.990    -3.094    -0.104     14.84
   Na2SO4          3.332e-06   3.370e-06    -5.477    -5.472     0.005     29.73
O(0)          1.701e-15
   O2              8.507e-16   8.617e-16   -15.070   -15.065     0.006     33.90
S(-2)         0.000e+00
   H2S             0.000e+00   0.000e+00   -87.093   -87.088     0.006     46.17
   HS-             0.000e+00   0.000e+00   -87.241   -87.351    -0.110     20.23
   S-2             0.000e+00   0.000e+00   -91.827   -92.230    -0.403     (0)  
   (H2S)2          0.000e+00   0.000e+00  -175.014  -175.009     0.006     24.22
S(6)          7.411e-03
   SO4-2           3.315e-03   1.305e-03    -2.479    -2.884    -0.405     13.05
   CaSO4           3.068e-03   3.085e-03    -2.513    -2.511     0.002     10.99
   NaSO4-          1.024e-03   8.060e-04    -2.990    -3.094    -0.104     14.84
   Na2SO4          3.332e-06   3.370e-06    -5.477    -5.472     0.005     29.73
   HSO4-           6.582e-07   5.177e-07    -6.182    -6.286    -0.104     41.13
   CaHSO4+         1.389e-08   1.093e-08    -7.857    -7.962    -0.104     (0)  

------------------------------Saturation indices-------------------------------

  Phase               SI** log IAP   log K(373 K,   1 atm)

  Anhydrite         0.00     -5.64   -5.64  CaSO4
  Gypsum           -0.39     -5.64   -5.25  CaSO4:2H2O
  H2(g)           -26.07    -29.16   -3.09  H2
  H2O(g)           -0.01     -0.00    0.00  H2O
  H2S(g)          -85.61    -93.61   -8.00  H2S
  Halite           -4.64     -3.02    1.62  NaCl
  Mirabilite      -11.45     -5.91    5.53  Na2SO4:10H2O
  O2(g)           -11.95    -15.06   -3.11  O2
  Sulfur          -64.82    -61.34    3.48  S
  Thenardite       -5.39     -5.91   -0.51  Na2SO4

**For a gas, SI = log10(fugacity). Fugacity = pressure * phi / 1 atm.
  For ideal gases, phi = 1.

Reaction step 5.

Using solution 1.	
Using pure phase assemblage 1.	
Using reaction 1.	

Reaction 1.	

	  2.000e-02 moles of the following reaction have been added:

	                 Relative
	Reactant            moles

	NaCl                 1.00000

	                 Relative
	Element             moles
	Cl                   1.00000
	Na                   1.00000

-------------------------------Phase assemblage--------------------------------

                                                      Moles in assemblage
Phase               SI  log IAP  log K(T, P)   Initial       Final       Delta

Anhydrite         0.00    -5.64     -5.64    9.993e+00   9.992e+00  -6.938e-04

-----------------------------Solution composition------------------------------

	Elements           Molality       Moles

	Ca                8.105e-03   8.105e-03
	Cl                6.001e-02   6.001e-02
	Na                6.001e-02   6.001e-02
	S                 8.105e-03   8.105e-03

----------------------------Description of solution----------------------------

                                       pH  =   6.250      Charge balance
                                       pe  =   6.681      Adjusted to redox equilibrium
      Specific Conductance (ÂµS/cm, 100Â°C)  = 19685
                          Density (g/cmÂł)  =   0.96180
                               Volume (L)  =   1.04451
                        Viscosity (mPa s)  =   0.28513
                        Activity of water  =   0.998
                 Ionic strength (mol/kgw)  =   7.722e-02
                       Mass of water (kg)  =   1.000e+00
                 Total alkalinity (eq/kg)  =  -6.632e-16
                         Temperature (Â°C)  = 100.00
                  Electrical balance (eq)  =  -8.007e-11
 Percent error, 100*(Cat-|An|)/(Cat+|An|)  =  -0.00
                               Iterations  =   4
                                  Total H  = 1.110124e+02
                                  Total O  = 5.553864e+01

----------------------------Distribution of species----------------------------

                                               Log       Log       Log    mole V
   Species          Molality    Activity  Molality  Activity     Gamma   cmÂł/mol

   OH-             1.368e-06   1.026e-06    -5.864    -5.989    -0.125     -5.32
   H+              6.911e-07   5.620e-07    -6.160    -6.250    -0.090      0.00
   H2O             5.551e+01   9.978e-01     1.744    -0.001     0.000     18.80
Ca            8.105e-03
   Ca+2            5.044e-03   1.834e-03    -2.297    -2.737    -0.439    -18.49
   CaSO4           3.061e-03   3.085e-03    -2.514    -2.511     0.003     10.99
   CaHSO4+         1.451e-08   1.110e-08    -7.838    -7.955    -0.117     (0)  
   CaOH+           7.070e-10   5.405e-10    -9.151    -9.267    -0.117     (0)  
Cl            6.001e-02
   Cl-             6.001e-02   4.525e-02    -1.222    -1.344    -0.123     16.65
   HCl             5.101e-09   5.501e-09    -8.292    -8.260     0.033     23.04
H(0)          1.052e-29
   H2              5.259e-30   5.358e-30   -29.279   -29.271     0.008     18.32
Na            6.001e-02
   Na+             5.852e-02   4.503e-02    -1.233    -1.346    -0.114      0.68
   NaSO4-          1.474e-03   1.126e-03    -2.832    -2.948    -0.117     15.22
   Na2SO4          6.769e-06   6.876e-06    -5.169    -5.163     0.007     29.73
O(0)          2.821e-15
   O2              1.410e-15   1.436e-15   -14.851   -14.843     0.008     33.90
S(-2)         0.000e+00
   H2S             0.000e+00   0.000e+00   -87.545   -87.537     0.008     46.17
   HS-             0.000e+00   0.000e+00   -87.682   -87.807    -0.125     20.32
   S-2             0.000e+00   0.000e+00   -92.240   -92.692    -0.452     (0)  
   (H2S)2          0.000e+00   0.000e+00  -175.915  -175.907     0.008     24.22
S(6)          8.105e-03
   SO4-2           3.563e-03   1.249e-03    -2.448    -2.903    -0.455     13.15
   CaSO4           3.061e-03   3.085e-03    -2.514    -2.511     0.003     10.99
   NaSO4-          1.474e-03   1.126e-03    -2.832    -2.948    -0.117     15.22
   Na2SO4          6.769e-06   6.876e-06    -5.169    -5.163     0.007     29.73
   HSO4-           6.580e-07   5.031e-07    -6.182    -6.298    -0.117     41.21
   CaHSO4+         1.451e-08   1.110e-08    -7.838    -7.955    -0.117     (0)  

------------------------------Saturation indices-------------------------------

  Phase               SI** log IAP   log K(373 K,   1 atm)

  Anhydrite         0.00     -5.64   -5.64  CaSO4
  Gypsum           -0.39     -5.64   -5.25  CaSO4:2H2O
  H2(g)           -26.18    -29.27   -3.09  H2
  H2O(g)           -0.01     -0.00    0.00  H2O
  H2S(g)          -86.05    -94.06   -8.00  H2S
  Halite           -4.31     -2.69    1.62  NaCl
  Mirabilite      -11.14     -5.61    5.53  Na2SO4:10H2O
  O2(g)           -11.73    -14.84   -3.11  O2
  Sulfur          -65.16    -61.67    3.48  S
  Thenardite       -5.08     -5.60   -0.51  Na2SO4

**For a gas, SI = log10(fugacity). Fugacity = pressure * phi / 1 atm.
  For ideal gases, phi = 1.

Reaction step 6.

Using solution 1.	
Using pure phase assemblage 1.	
Using reaction 1.	

Reaction 1.	

	  2.000e-02 moles of the following reaction have been added:

	                 Relative
	Reactant            moles

	NaCl                 1.00000

	                 Relative
	Element             moles
	Cl                   1.00000
	Na                   1.00000

-------------------------------Phase assemblage--------------------------------

                                                      Moles in assemblage
Phase               SI  log IAP  log K(T, P)   Initial       Final       Delta

Anhydrite         0.00    -5.64     -5.64    9.992e+00   9.991e+00  -6.212e-04

-----------------------------Solution composition------------------------------

	Elements           Molality       Moles

	Ca                8.726e-03   8.726e-03
	Cl                8.001e-02   8.001e-02
	Na                8.001e-02   8.001e-02
	S                 8.726e-03   8.726e-03

----------------------------Description of solution----------------------------

                                       pH  =   6.245      Charge balance
                                       pe  =  -0.874      Adjusted to redox equilibrium
      Specific Conductance (ÂµS/cm, 100Â°C)  = 25035
                          Density (g/cmÂł)  =   0.96267
                               Volume (L)  =   1.04487
                        Viscosity (mPa s)  =   0.28596
                        Activity of water  =   0.997
                 Ionic strength (mol/kgw)  =   9.887e-02
                       Mass of water (kg)  =   1.000e+00
                 Total alkalinity (eq/kg)  =  -6.704e-16
                         Temperature (Â°C)  = 100.00
                  Electrical balance (eq)  =  -8.007e-11
 Percent error, 100*(Cat-|An|)/(Cat+|An|)  =  -0.00
                               Iterations  =  11
                                  Total H  = 1.110124e+02
                                  Total O  = 5.554112e+01

----------------------------Distribution of species----------------------------

                                               Log       Log       Log    mole V
   Species          Molality    Activity  Molality  Activity     Gamma   cmÂł/mol

   OH-             1.387e-06   1.012e-06    -5.858    -5.995    -0.137     -5.22
   H+              7.099e-07   5.693e-07    -6.149    -6.245    -0.096      0.00
   H2O             5.551e+01   9.971e-01     1.744    -0.001     0.000     18.80
Ca            8.726e-03
   Ca+2            5.672e-03   1.903e-03    -2.246    -2.721    -0.474    -18.35
   CaSO4           3.054e-03   3.085e-03    -2.515    -2.511     0.004     10.99
   CaHSO4+         1.502e-08   1.124e-08    -7.823    -7.949    -0.126     (0)  
   CaOH+           7.387e-10   5.530e-10    -9.132    -9.257    -0.126     (0)  
Cl            8.001e-02
   Cl-             8.001e-02   5.877e-02    -1.097    -1.231    -0.134     16.72
   HCl             6.570e-09   7.239e-09    -8.182    -8.140     0.042     23.04
H(0)          1.378e-14
   H2              6.891e-15   7.058e-15   -14.162   -14.151     0.010     18.32
Na            8.001e-02
   Na+             7.809e-02   5.883e-02    -1.107    -1.230    -0.123      0.72
   NaSO4-          1.898e-03   1.419e-03    -2.722    -2.848    -0.126     15.55
   Na2SO4          1.109e-05   1.131e-05    -4.955    -4.946     0.009     29.73
O(0)          0.000e+00
   O2              0.000e+00   0.000e+00   -45.093   -45.083     0.010     33.90
S(-2)         1.479e-27
   H2S             8.486e-28   8.682e-28   -27.071   -27.061     0.010     46.17
   HS-             6.304e-28   4.598e-28   -27.200   -27.337    -0.137     20.39
   S-2             1.830e-32   5.913e-33   -31.737   -32.228    -0.491     (0)  
   (H2S)2          0.000e+00   0.000e+00   -54.966   -54.956     0.010     24.22
S(6)          8.726e-03
   SO4-2           3.762e-03   1.204e-03    -2.425    -2.919    -0.495     13.25
   CaSO4           3.054e-03   3.085e-03    -2.515    -2.511     0.004     10.99
   NaSO4-          1.898e-03   1.419e-03    -2.722    -2.848    -0.126     15.55
   Na2SO4          1.109e-05   1.131e-05    -4.955    -4.946     0.009     29.73
   HSO4-           6.564e-07   4.914e-07    -6.183    -6.309    -0.126     41.28
   CaHSO4+         1.502e-08   1.124e-08    -7.823    -7.949    -0.126     (0)  

------------------------------Saturation indices-------------------------------

  Phase               SI** log IAP   log K(373 K,   1 atm)

  Anhydrite         0.00     -5.64   -5.64  CaSO4
  Gypsum           -0.39     -5.64   -5.25  CaSO4:2H2O
  H2(g)           -11.07    -14.15   -3.09  H2
  H2O(g)           -0.01     -0.00    0.00  H2O
  H2S(g)          -25.58    -33.58   -8.00  H2S
  Halite           -4.08     -2.46    1.62  NaCl
  Mirabilite      -10.93     -5.39    5.53  Na2SO4:10H2O
  O2(g)           -41.97    -45.08   -3.11  O2
  Sulfur          -19.80    -16.32    3.48  S
  Thenardite       -4.87     -5.38   -0.51  Na2SO4

**For a gas, SI = log10(fugacity). Fugacity = pressure * phi / 1 atm.
  For ideal gases, phi = 1.

Reaction step 7.

Using solution 1.	
Using pure phase assemblage 1.	
Using reaction 1.	

Reaction 1.	

	  2.000e-02 moles of the following reaction have been added:

	                 Relative
	Reactant            moles

	NaCl                 1.00000

	                 Relative
	Element             moles
	Cl                   1.00000
	Na                   1.00000

-------------------------------Phase assemblage--------------------------------

                                                      Moles in assemblage
Phase               SI  log IAP  log K(T, P)   Initial       Final       Delta

Anhydrite         0.00    -5.64     -5.64    9.991e+00   9.991e+00  -5.696e-04

-----------------------------Solution composition------------------------------

	Elements           Molality       Moles

	Ca                9.296e-03   9.296e-03
	Cl                1.000e-01   1.000e-01
	Na                1.000e-01   1.000e-01
	S                 9.296e-03   9.296e-03

----------------------------Description of solution----------------------------

                                       pH  =   6.240      Charge balance
                                       pe  =  -0.883      Adjusted to redox equilibrium
      Specific Conductance (ÂµS/cm, 100Â°C)  = 30239
                          Density (g/cmÂł)  =   0.96353
                               Volume (L)  =   1.04523
                        Viscosity (mPa s)  =   0.28678
                        Activity of water  =   0.996
                 Ionic strength (mol/kgw)  =   1.204e-01
                       Mass of water (kg)  =   1.000e+00
                 Total alkalinity (eq/kg)  =  -6.864e-16
                         Temperature (Â°C)  = 100.00
                  Electrical balance (eq)  =  -8.007e-11
 Percent error, 100*(Cat-|An|)/(Cat+|An|)  =  -0.00
                               Iterations  =   4
                                  Total H  = 1.110124e+02
                                  Total O  = 5.554340e+01

----------------------------Distribution of species----------------------------

                                               Log       Log       Log    mole V
   Species          Molality    Activity  Molality  Activity     Gamma   cmÂł/mol

   OH-             1.402e-06   9.996e-07    -5.853    -6.000    -0.147     -5.13
   H+              7.260e-07   5.758e-07    -6.139    -6.240    -0.101      0.00
   H2O             5.551e+01   9.964e-01     1.744    -0.002     0.000     18.80
Ca            9.296e-03
   Ca+2            6.248e-03   1.964e-03    -2.204    -2.707    -0.503    -18.24
   CaSO4           3.047e-03   3.085e-03    -2.516    -2.511     0.005     10.99
   CaHSO4+         1.544e-08   1.137e-08    -7.811    -7.944    -0.133     (0)  
   CaOH+           7.659e-10   5.640e-10    -9.116    -9.249    -0.133     (0)  
Cl            1.000e-01
   Cl-             1.000e-01   7.188e-02    -1.000    -1.143    -0.143     16.78
   HCl             7.959e-09   8.955e-09    -8.099    -8.048     0.051     23.04
H(0)          1.464e-14
   H2              7.321e-15   7.537e-15   -14.135   -14.123     0.013     18.32
Na            1.000e-01
   Na+             9.768e-02   7.235e-02    -1.010    -1.141    -0.130      0.76
   NaSO4-          2.302e-03   1.690e-03    -2.638    -2.772    -0.134     15.85
   Na2SO4          1.618e-05   1.658e-05    -4.791    -4.780     0.011     29.73
O(0)          0.000e+00
   O2              0.000e+00   0.000e+00   -45.153   -45.141     0.012     33.90
S(-2)         1.916e-27
   H2S             1.091e-27   1.122e-27   -26.962   -26.950     0.012     46.17
   HS-             8.243e-28   5.875e-28   -27.084   -27.231    -0.147     20.46
   S-2             2.488e-32   7.471e-33   -31.604   -32.127    -0.523     (0)  
   (H2S)2          0.000e+00   0.000e+00   -54.745   -54.733     0.012     24.22
S(6)          9.296e-03
   SO4-2           3.930e-03   1.167e-03    -2.406    -2.933    -0.527     13.34
   CaSO4           3.047e-03   3.085e-03    -2.516    -2.511     0.005     10.99
   NaSO4-          2.302e-03   1.690e-03    -2.638    -2.772    -0.134     15.85
   Na2SO4          1.618e-05   1.658e-05    -4.791    -4.780     0.011     29.73
   HSO4-           6.539e-07   4.815e-07    -6.185    -6.317    -0.133     41.35
   CaHSO4+         1.544e-08   1.137e-08    -7.811    -7.944    -0.133     (0)  

------------------------------Saturation indices-------------------------------

  Phase               SI** log IAP   log K(373 K,   1 atm)

  Anhydrite         0.00     -5.64   -5.64  CaSO4
  Gypsum           -0.39     -5.64   -5.25  CaSO4:2H2O
  H2(g)           -11.04    -14.12   -3.09  H2
  H2O(g)           -0.01     -0.00    0.00  H2O
  H2S(g)          -25.47    -33.47   -8.00  H2S
  Halite           -3.90     -2.28    1.62  NaCl
  Mirabilite      -10.76     -5.23    5.53  Na2SO4:10H2O
  O2(g)           -42.03    -45.14   -3.11  O2
  Sulfur          -19.72    -16.24    3.48  S
  Thenardite       -4.70     -5.21   -0.51  Na2SO4

**For a gas, SI = log10(fugacity). Fugacity = pressure * phi / 1 atm.
  For ideal gases, phi = 1.

Reaction step 8.

Using solution 1.	
Using pure phase assemblage 1.	
Using reaction 1.	

Reaction 1.	

	  1.000e-01 moles of the following reaction have been added:

	                 Relative
	Reactant            moles

	NaCl                 1.00000

	                 Relative
	Element             moles
	Cl                   1.00000
	Na                   1.00000

-------------------------------Phase assemblage--------------------------------

                                                      Moles in assemblage
Phase               SI  log IAP  log K(T, P)   Initial       Final       Delta

Anhydrite         0.00    -5.64     -5.64    9.991e+00   9.988e+00  -2.374e-03

-----------------------------Solution composition------------------------------

	Elements           Molality       Moles

	Ca                1.167e-02   1.167e-02
	Cl                2.000e-01   2.000e-01
	Na                2.000e-01   2.000e-01
	S                 1.167e-02   1.167e-02

----------------------------Description of solution----------------------------

                                       pH  =   6.221      Charge balance
                                       pe  =  -0.872      Adjusted to redox equilibrium
      Specific Conductance (ÂµS/cm, 100Â°C)  = 54763
                          Density (g/cmÂł)  =   0.96774
                               Volume (L)  =   1.04705
                        Viscosity (mPa s)  =   0.29075
                        Activity of water  =   0.993
                 Ionic strength (mol/kgw)  =   2.263e-01
                       Mass of water (kg)  =   1.000e+00
                 Total alkalinity (eq/kg)  =  -6.945e-16
                         Temperature (Â°C)  = 100.00
                  Electrical balance (eq)  =  -8.007e-11
 Percent error, 100*(Cat-|An|)/(Cat+|An|)  =  -0.00
                               Iterations  =   5
                                  Total H  = 1.110124e+02
                                  Total O  = 5.555290e+01

----------------------------Distribution of species----------------------------

                                               Log       Log       Log    mole V
   Species          Molality    Activity  Molality  Activity     Gamma   cmÂł/mol

   OH-             1.449e-06   9.536e-07    -5.839    -6.021    -0.182     -4.75
   H+              7.853e-07   6.015e-07    -6.105    -6.221    -0.116      0.00
   H2O             5.551e+01   9.929e-01     1.744    -0.003     0.000     18.80
Ca            1.167e-02
   Ca+2            8.655e-03   2.214e-03    -2.063    -2.655    -0.592    -17.85
   CaSO4           3.014e-03   3.085e-03    -2.521    -2.511     0.010     10.99
   CaHSO4+         1.688e-08   1.188e-08    -7.773    -7.925    -0.153     (0)  
   CaOH+           8.621e-10   6.065e-10    -9.064    -9.217    -0.153     (0)  
Cl            2.000e-01
   Cl-             2.000e-01   1.335e-01    -0.699    -0.875    -0.176     17.02
   HCl             1.392e-08   1.737e-08    -7.856    -7.760     0.096     23.04
H(0)          1.479e-14
   H2              7.394e-15   7.810e-15   -14.131   -14.107     0.024     18.32
Na            2.000e-01
   Na+             1.958e-01   1.377e-01    -0.708    -0.861    -0.153      0.89
   NaSO4-          4.101e-03   2.853e-03    -2.387    -2.545    -0.158     17.05
   Na2SO4          5.086e-05   5.325e-05    -4.294    -4.274     0.020     29.73
O(0)          0.000e+00
   O2              0.000e+00   0.000e+00   -45.197   -45.174     0.023     33.90
S(-2)         2.172e-27
   H2S             1.205e-27   1.269e-27   -26.919   -26.896     0.023     46.17
   HS-             9.670e-28   6.362e-28   -27.015   -27.196    -0.182     20.72
   S-2             3.299e-32   7.744e-33   -31.482   -32.111    -0.629     (0)  
   (H2S)2          0.000e+00   0.000e+00   -54.649   -54.626     0.023     24.22
S(6)          1.167e-02
   SO4-2           4.503e-03   1.035e-03    -2.347    -2.985    -0.638     13.72
   NaSO4-          4.101e-03   2.853e-03    -2.387    -2.545    -0.158     17.05
   CaSO4           3.014e-03   3.085e-03    -2.521    -2.511     0.010     10.99
   Na2SO4          5.086e-05   5.325e-05    -4.294    -4.274     0.020     29.73
   HSO4-           6.342e-07   4.462e-07    -6.198    -6.350    -0.153     41.58
   CaHSO4+         1.688e-08   1.188e-08    -7.773    -7.925    -0.153     (0)  

------------------------------Saturation indices-------------------------------

  Phase               SI** log IAP   log K(373 K,   1 atm)

  Anhydrite         0.00     -5.64   -5.64  CaSO4
  Gypsum           -0.40     -5.65   -5.25  CaSO4:2H2O
  H2(g)           -11.02    -14.11   -3.09  H2
  H2O(g)           -0.01     -0.00    0.00  H2O
  H2S(g)          -25.41    -33.42   -8.00  H2S
  Halite           -3.35     -1.74    1.62  NaCl
  Mirabilite      -10.27     -4.74    5.53  Na2SO4:10H2O
  O2(g)           -42.06    -45.17   -3.11  O2
  Sulfur          -19.68    -16.20    3.48  S
  Thenardite       -4.19     -4.71   -0.51  Na2SO4

**For a gas, SI = log10(fugacity). Fugacity = pressure * phi / 1 atm.
  For ideal gases, phi = 1.

Reaction step 9.

Using solution 1.	
Using pure phase assemblage 1.	
Using reaction 1.	

Reaction 1.	

	  2.000e-01 moles of the following reaction have been added:

	                 Relative
	Reactant            moles

	NaCl                 1.00000

	                 Relative
	Element             moles
	Cl                   1.00000
	Na                   1.00000

-------------------------------Phase assemblage--------------------------------

                                                      Moles in assemblage
Phase               SI  log IAP  log K(T, P)   Initial       Final       Delta

Anhydrite         0.00    -5.64     -5.64    9.988e+00   9.985e+00  -3.504e-03

-----------------------------Solution composition------------------------------

	Elements           Molality       Moles

	Ca                1.517e-02   1.517e-02
	Cl                4.000e-01   4.000e-01
	Na                4.000e-01   4.000e-01
	S                 1.517e-02   1.517e-02

----------------------------Description of solution----------------------------

                                       pH  =   6.195      Charge balance
                                       pe  =  -0.750      Adjusted to redox equilibrium
      Specific Conductance (ÂµS/cm, 100Â°C)  = 99245
                          Density (g/cmÂł)  =   0.97583
                               Volume (L)  =   1.05084
                        Viscosity (mPa s)  =   0.29843
                        Activity of water  =   0.986
                 Ionic strength (mol/kgw)  =   4.345e-01
                       Mass of water (kg)  =   1.000e+00
                 Total alkalinity (eq/kg)  =  -6.417e-16
                         Temperature (Â°C)  = 100.00
                  Electrical balance (eq)  =  -8.008e-11
 Percent error, 100*(Cat-|An|)/(Cat+|An|)  =  -0.00
                               Iterations  =   5
                                  Total H  = 1.110124e+02
                                  Total O  = 5.556691e+01

----------------------------Distribution of species----------------------------

                                               Log       Log       Log    mole V
   Species          Molality    Activity  Molality  Activity     Gamma   cmÂł/mol

   OH-             1.484e-06   8.923e-07    -5.828    -6.049    -0.221     -4.16
   H+              8.622e-07   6.384e-07    -6.064    -6.195    -0.131      0.00
   H2O             5.551e+01   9.861e-01     1.744    -0.006     0.000     18.80
Ca            1.517e-02
   Ca+2            1.222e-02   2.602e-03    -1.913    -2.585    -0.672    -17.40
   CaSO4           2.951e-03   3.085e-03    -2.530    -2.511     0.019     10.99
   CaHSO4+         1.823e-08   1.260e-08    -7.739    -7.899    -0.160     (0)  
   CaOH+           9.646e-10   6.670e-10    -9.016    -9.176    -0.160     (0)  
Cl            4.000e-01
   Cl-             4.000e-01   2.466e-01    -0.398    -0.608    -0.210     17.35
   HCl             2.225e-08   3.406e-08    -7.653    -7.468     0.185     23.04
H(0)          9.045e-15
   H2              4.523e-15   5.024e-15   -14.345   -14.299     0.046     18.32
Na            4.000e-01
   Na+             3.927e-01   2.653e-01    -0.406    -0.576    -0.170      1.04
   NaSO4-          6.990e-03   4.678e-03    -2.156    -2.330    -0.174     18.80
   Na2SO4          1.540e-04   1.682e-04    -3.813    -3.774     0.038     29.73
O(0)          0.000e+00
   O2              0.000e+00   0.000e+00   -44.841   -44.797     0.043     33.90
S(-2)         3.620e-28
   H2S             1.937e-28   2.141e-28   -27.713   -27.669     0.043     46.17
   HS-             1.682e-28   1.011e-28   -27.774   -27.995    -0.221     21.09
   S-2             6.426e-33   1.160e-33   -32.192   -32.936    -0.744     (0)  
   (H2S)2          0.000e+00   0.000e+00   -56.215   -56.172     0.043     24.22
S(6)          1.517e-02
   NaSO4-          6.990e-03   4.678e-03    -2.156    -2.330    -0.174     18.80
   SO4-2           5.078e-03   8.807e-04    -2.294    -3.055    -0.761     14.39
   CaSO4           2.951e-03   3.085e-03    -2.530    -2.511     0.019     10.99
   Na2SO4          1.540e-04   1.682e-04    -3.813    -3.774     0.038     29.73
   HSO4-           5.826e-07   4.029e-07    -6.235    -6.395    -0.160     41.91
   CaHSO4+         1.823e-08   1.260e-08    -7.739    -7.899    -0.160     (0)  

------------------------------Saturation indices-------------------------------

  Phase               SI** log IAP   log K(373 K,   1 atm)

  Anhydrite         0.00     -5.64   -5.64  CaSO4
  Gypsum           -0.40     -5.65   -5.25  CaSO4:2H2O
  H2(g)           -11.21    -14.30   -3.09  H2
  H2O(g)           -0.01     -0.01    0.00  H2O
  H2S(g)          -26.19    -34.19   -8.00  H2S
  Halite           -2.80     -1.18    1.62  NaCl
  Mirabilite       -9.80     -4.27    5.53  Na2SO4:10H2O
  O2(g)           -41.68    -44.80   -3.11  O2
  Sulfur          -20.26    -16.78    3.48  S
  Thenardite       -3.69     -4.21   -0.51  Na2SO4

**For a gas, SI = log10(fugacity). Fugacity = pressure * phi / 1 atm.
  For ideal gases, phi = 1.

Reaction step 10.

Using solution 1.	
Using pure phase assemblage 1.	
Using reaction 1.	

Reaction 1.	

	  2.000e-01 moles of the following reaction have been added:

	                 Relative
	Reactant            moles

	NaCl                 1.00000

	                 Relative
	Element             moles
	Cl                   1.00000
	Na                   1.00000

-------------------------------Phase assemblage--------------------------------

                                                      Moles in assemblage
Phase               SI  log IAP  log K(T, P)   Initial       Final       Delta

Anhydrite         0.00    -5.64     -5.64    9.985e+00   9.982e+00  -2.616e-03

-----------------------------Solution composition------------------------------

	Elements           Molality       Moles

	Ca                1.779e-02   1.779e-02
	Cl                6.000e-01   6.000e-01
	Na                6.000e-01   6.000e-01
	S                 1.779e-02   1.779e-02

----------------------------Description of solution----------------------------

                                       pH  =   6.176      Charge balance
                                       pe  =  -0.924      Adjusted to redox equilibrium
      Specific Conductance (ÂµS/cm, 100Â°C)  = 139763
                          Density (g/cmÂł)  =   0.98364
                               Volume (L)  =   1.05474
                        Viscosity (mPa s)  =   0.30604
                        Activity of water  =   0.979
                 Ionic strength (mol/kgw)  =   6.402e-01
                       Mass of water (kg)  =   1.000e+00
                 Total alkalinity (eq/kg)  =  -6.348e-16
                         Temperature (Â°C)  = 100.00
                  Electrical balance (eq)  =  -8.085e-11
 Percent error, 100*(Cat-|An|)/(Cat+|An|)  =  -0.00
                               Iterations  =   4
                                  Total H  = 1.110124e+02
                                  Total O  = 5.557737e+01

----------------------------Distribution of species----------------------------

                                               Log       Log       Log    mole V
   Species          Molality    Activity  Molality  Activity     Gamma   cmÂł/mol

   OH-             1.491e-06   8.479e-07    -5.826    -6.072    -0.245     -3.65
   H+              9.179e-07   6.671e-07    -6.037    -6.176    -0.139      0.00
   H2O             5.551e+01   9.792e-01     1.744    -0.009     0.000     18.80
Ca            1.779e-02
   Ca+2            1.490e-02   2.939e-03    -1.827    -2.532    -0.705    -17.11
   CaSO4           2.889e-03   3.085e-03    -2.539    -2.511     0.028     10.99
   CaHSO4+         1.867e-08   1.317e-08    -7.729    -7.880    -0.151     (0)  
   CaOH+           1.015e-09   7.159e-10    -8.994    -9.145    -0.151     (0)  
Cl            6.000e-01
   Cl-             6.000e-01   3.534e-01    -0.222    -0.452    -0.230     17.60
   HCl             2.724e-08   5.101e-08    -7.565    -7.292     0.272     23.04
H(0)          2.091e-14
   H2              1.046e-14   1.221e-14   -13.981   -13.913     0.067     18.32
Na            6.000e-01
   Na+             5.902e-01   3.951e-01    -0.229    -0.403    -0.174      1.14
   NaSO4-          9.261e-03   6.168e-03    -2.033    -2.210    -0.177     20.18
   Na2SO4          2.900e-04   3.304e-04    -3.538    -3.481     0.057     29.73
O(0)          0.000e+00
   O2              0.000e+00   0.000e+00   -45.639   -45.575     0.064     33.90
S(-2)         1.231e-26
   H2S             6.408e-27   7.425e-27   -26.193   -26.129     0.064     46.17
   HS-             5.902e-27   3.356e-27   -26.229   -26.474    -0.245     21.37
   S-2             2.381e-31   3.683e-32   -30.623   -31.434    -0.811     (0)  
   (H2S)2          0.000e+00   0.000e+00   -53.156   -53.092     0.064     24.22
S(6)          1.779e-02
   NaSO4-          9.261e-03   6.168e-03    -2.033    -2.210    -0.177     20.18
   SO4-2           5.348e-03   7.798e-04    -2.272    -3.108    -0.836     15.01
   CaSO4           2.889e-03   3.085e-03    -2.539    -2.511     0.028     10.99
   Na2SO4          2.900e-04   3.304e-04    -3.538    -3.481     0.057     29.73
   HSO4-           5.284e-07   3.728e-07    -6.277    -6.429    -0.151     42.16
   CaHSO4+         1.867e-08   1.317e-08    -7.729    -7.880    -0.151     (0)  

------------------------------Saturation indices-------------------------------

  Phase               SI** log IAP   log K(373 K,   1 atm)

  Anhydrite         0.00     -5.64   -5.64  CaSO4
  Gypsum           -0.41     -5.66   -5.25  CaSO4:2H2O
  H2(g)           -10.83    -13.91   -3.09  H2
  H2O(g)           -0.01     -0.01    0.00  H2O
  H2S(g)          -24.65    -32.65   -8.00  H2S
  Halite           -2.47     -0.86    1.62  NaCl
  Mirabilite       -9.54     -4.01    5.53  Na2SO4:10H2O
  O2(g)           -42.46    -45.57   -3.11  O2
  Sulfur          -19.11    -15.63    3.48  S
  Thenardite       -3.40     -3.91   -0.51  Na2SO4

**For a gas, SI = log10(fugacity). Fugacity = pressure * phi / 1 atm.
  For ideal gases, phi = 1.

Reaction step 11.

Using solution 1.	
Using pure phase assemblage 1.	
Using reaction 1.	

Reaction 1.	

	  2.000e-01 moles of the following reaction have been added:

	                 Relative
	Reactant            moles

	NaCl                 1.00000

	                 Relative
	Element             moles
	Cl                   1.00000
	Na                   1.00000

-------------------------------Phase assemblage--------------------------------

                                                      Moles in assemblage
Phase               SI  log IAP  log K(T, P)   Initial       Final       Delta

Anhydrite         0.00    -5.64     -5.64    9.982e+00   9.980e+00  -2.060e-03

-----------------------------Solution composition------------------------------

	Elements           Molality       Moles

	Ca                1.985e-02   1.985e-02
	Cl                8.000e-01   8.000e-01
	Na                8.000e-01   8.000e-01
	S                 1.985e-02   1.985e-02

----------------------------Description of solution----------------------------

                                       pH  =   6.160      Charge balance
                                       pe  =  -0.607      Adjusted to redox equilibrium
      Specific Conductance (ÂµS/cm, 100Â°C)  = 177280
                          Density (g/cmÂł)  =   0.99124
                               Volume (L)  =   1.05873
                        Viscosity (mPa s)  =   0.31368
                        Activity of water  =   0.972
                 Ionic strength (mol/kgw)  =   8.446e-01
                       Mass of water (kg)  =   1.000e+00
                 Total alkalinity (eq/kg)  =  -7.008e-16
                         Temperature (Â°C)  = 100.00
                  Electrical balance (eq)  =  -8.089e-11
 Percent error, 100*(Cat-|An|)/(Cat+|An|)  =  -0.00
                               Iterations  =   4
                                  Total H  = 1.110124e+02
                                  Total O  = 5.558561e+01

----------------------------Distribution of species----------------------------

                                               Log       Log       Log    mole V
   Species          Molality    Activity  Molality  Activity     Gamma   cmÂł/mol

   OH-             1.487e-06   8.124e-07    -5.828    -6.090    -0.263     -3.19
   H+              9.632e-07   6.915e-07    -6.016    -6.160    -0.144      0.00
   H2O             5.551e+01   9.724e-01     1.744    -0.012     0.000     18.80
Ca            1.985e-02
   Ca+2            1.702e-02   3.257e-03    -1.769    -2.487    -0.718    -16.89
   CaSO4           2.829e-03   3.085e-03    -2.548    -2.511     0.038     10.99
   CaHSO4+         1.864e-08   1.365e-08    -7.729    -7.865    -0.135     (0)  
   CaOH+           1.038e-09   7.602e-10    -8.984    -9.119    -0.135     (0)  
Cl            8.000e-01
   Cl-             8.000e-01   4.570e-01    -0.097    -0.340    -0.243     17.80
   HCl             2.989e-08   6.838e-08    -7.525    -7.165     0.359     23.04
H(0)          4.974e-15
   H2              2.487e-15   3.050e-15   -14.604   -14.516     0.089     18.32
Na            8.000e-01
   Na+             7.880e-01   5.300e-01    -0.103    -0.276    -0.172      1.21
   NaSO4-          1.109e-02   7.465e-03    -1.955    -2.127    -0.172     21.36
   Na2SO4          4.516e-04   5.364e-04    -3.345    -3.271     0.075     29.73
O(0)          0.000e+00
   O2              0.000e+00   0.000e+00   -44.460   -44.376     0.084     33.90
S(-2)         4.676e-29
   H2S             2.374e-29   2.884e-29   -28.624   -28.540     0.084     46.17
   HS-             2.302e-29   1.258e-29   -28.638   -28.900    -0.263     21.61
   S-2             9.590e-34   1.332e-34   -33.018   -33.876    -0.857     (0)  
   (H2S)2          0.000e+00   0.000e+00   -57.998   -57.913     0.084     24.22
S(6)          1.985e-02
   NaSO4-          1.109e-02   7.465e-03    -1.955    -2.127    -0.172     21.36
   SO4-2           5.477e-03   7.036e-04    -2.261    -3.153    -0.891     15.60
   CaSO4           2.829e-03   3.085e-03    -2.548    -2.511     0.038     10.99
   Na2SO4          4.516e-04   5.364e-04    -3.345    -3.271     0.075     29.73
   HSO4-           4.761e-07   3.486e-07    -6.322    -6.458    -0.135     42.35
   CaHSO4+         1.864e-08   1.365e-08    -7.729    -7.865    -0.135     (0)  

------------------------------Saturation indices-------------------------------

  Phase               SI** log IAP   log K(373 K,   1 atm)

  Anhydrite         0.00     -5.64   -5.64  CaSO4
  Gypsum           -0.42     -5.66   -5.25  CaSO4:2H2O
  H2(g)           -11.43    -14.52   -3.09  H2
  H2O(g)           -0.02     -0.01    0.00  H2O
  H2S(g)          -27.06    -35.06   -8.00  H2S
  Halite           -2.23     -0.62    1.62  NaCl
  Mirabilite       -9.36     -3.83    5.53  Na2SO4:10H2O
  O2(g)           -41.26    -44.38   -3.11  O2
  Sulfur          -20.92    -17.43    3.48  S
  Thenardite       -3.19     -3.70   -0.51  Na2SO4

**For a gas, SI = log10(fugacity). Fugacity = pressure * phi / 1 atm.
  For ideal gases, phi = 1.

Reaction step 12.

Using solution 1.	
Using pure phase assemblage 1.	
Using reaction 1.	

Reaction 1.	

	  2.000e-01 moles of the following reaction have been added:

	                 Relative
	Reactant            moles

	NaCl                 1.00000

	                 Relative
	Element             moles
	Cl                   1.00000
	Na                   1.00000

-------------------------------Phase assemblage--------------------------------

                                                      Moles in assemblage
Phase               SI  log IAP  log K(T, P)   Initial       Final       Delta

Anhydrite         0.00    -5.64     -5.64    9.980e+00   9.978e+00  -1.659e-03

-----------------------------Solution composition------------------------------

	Elements           Molality       Moles

	Ca                2.151e-02   2.151e-02
	Cl                1.000e+00   1.000e+00
	Na                1.000e+00   1.000e+00
	S                 2.151e-02   2.151e-02

----------------------------Description of solution----------------------------

                                       pH  =   6.147      Charge balance
                                       pe  =  -0.770      Adjusted to redox equilibrium
      Specific Conductance (ÂµS/cm, 100Â°C)  = 212262
                          Density (g/cmÂł)  =   0.99866
                               Volume (L)  =   1.06279
                        Viscosity (mPa s)  =   0.32140
                        Activity of water  =   0.966
                 Ionic strength (mol/kgw)  =   1.048e+00
                       Mass of water (kg)  =   1.000e+00
                 Total alkalinity (eq/kg)  =  -6.917e-16
                         Temperature (Â°C)  = 100.00
                  Electrical balance (eq)  =  -8.090e-11
 Percent error, 100*(Cat-|An|)/(Cat+|An|)  =  -0.00
                               Iterations  =   4
                                  Total H  = 1.110124e+02
                                  Total O  = 5.559225e+01

----------------------------Distribution of species----------------------------

                                               Log       Log       Log    mole V
   Species          Molality    Activity  Molality  Activity     Gamma   cmÂł/mol

   OH-             1.477e-06   7.826e-07    -5.831    -6.106    -0.276     -2.76
   H+              1.002e-06   7.127e-07    -5.999    -6.147    -0.148      0.00
   H2O             5.551e+01   9.656e-01     1.744    -0.015     0.000     18.80
Ca            2.151e-02
   Ca+2            1.874e-02   3.570e-03    -1.727    -2.447    -0.720    -16.70
   CaSO4           2.771e-03   3.085e-03    -2.557    -2.511     0.047     10.99
   CaHSO4+         1.833e-08   1.407e-08    -7.737    -7.852    -0.115     (0)  
   CaOH+           1.046e-09   8.026e-10    -8.981    -9.095    -0.115     (0)  
Cl            1.000e+00
   Cl-             1.000e+00   5.590e-01     0.000    -0.253    -0.253     17.97
   HCl             3.087e-08   8.621e-08    -7.510    -7.064     0.446     23.04
H(0)          1.066e-14
   H2              5.331e-15   6.869e-15   -14.273   -14.163     0.110     18.32
Na            1.000e+00
   Na+             9.862e-01   6.715e-01    -0.006    -0.173    -0.167      1.27
   NaSO4-          1.258e-02   8.629e-03    -1.900    -2.064    -0.164     22.41
   Na2SO4          6.345e-04   7.856e-04    -3.198    -3.105     0.093     29.73
O(0)          0.000e+00
   O2              0.000e+00   0.000e+00   -45.192   -45.087     0.105     33.90
S(-2)         1.172e-27
   HS-             5.906e-28   3.129e-28   -27.229   -27.505    -0.276     21.82
   H2S             5.810e-28   7.396e-28   -27.236   -27.131     0.105     46.17
   S-2             2.512e-32   3.214e-33   -31.600   -32.493    -0.893     (0)  
   (H2S)2          0.000e+00   0.000e+00   -55.200   -55.095     0.105     24.22
S(6)          2.151e-02
   NaSO4-          1.258e-02   8.629e-03    -1.900    -2.064    -0.164     22.41
   SO4-2           5.525e-03   6.419e-04    -2.258    -3.193    -0.935     16.17
   CaSO4           2.771e-03   3.085e-03    -2.557    -2.511     0.047     10.99
   Na2SO4          6.345e-04   7.856e-04    -3.198    -3.105     0.093     29.73
   HSO4-           4.272e-07   3.279e-07    -6.369    -6.484    -0.115     42.53
   CaHSO4+         1.833e-08   1.407e-08    -7.737    -7.852    -0.115     (0)  

------------------------------Saturation indices-------------------------------

  Phase               SI** log IAP   log K(373 K,   1 atm)

  Anhydrite         0.00     -5.64   -5.64  CaSO4
  Gypsum           -0.42     -5.67   -5.25  CaSO4:2H2O
  H2(g)           -11.08    -14.16   -3.09  H2
  H2O(g)           -0.02     -0.02    0.00  H2O
  H2S(g)          -25.65    -33.65   -8.00  H2S
  Halite           -2.04     -0.43    1.62  NaCl
  Mirabilite       -9.22     -3.69    5.53  Na2SO4:10H2O
  O2(g)           -41.97    -45.09   -3.11  O2
  Sulfur          -19.86    -16.38    3.48  S
  Thenardite       -3.02     -3.54   -0.51  Na2SO4

**For a gas, SI = log10(fugacity). Fugacity = pressure * phi / 1 atm.
  For ideal gases, phi = 1.

Reaction step 13.

Using solution 1.	
Using pure phase assemblage 1.	
Using reaction 1.	

Reaction 1.	

	  2.000e-01 moles of the following reaction have been added:

	                 Relative
	Reactant            moles

	NaCl                 1.00000

	                 Relative
	Element             moles
	Cl                   1.00000
	Na                   1.00000

-------------------------------Phase assemblage--------------------------------

                                                      Moles in assemblage
Phase               SI  log IAP  log K(T, P)   Initial       Final       Delta

Anhydrite         0.00    -5.64     -5.64    9.978e+00   9.977e+00  -1.349e-03

-----------------------------Solution composition------------------------------

	Elements           Molality       Moles

	Ca                2.286e-02   2.286e-02
	Cl                1.200e+00   1.200e+00
	Na                1.200e+00   1.200e+00
	S                 2.286e-02   2.286e-02

----------------------------Description of solution----------------------------

                                       pH  =   6.136      Charge balance
                                       pe  =  -0.966      Adjusted to redox equilibrium
      Specific Conductance (ÂµS/cm, 100Â°C)  = 244994
                          Density (g/cmÂł)  =   1.00594
                               Volume (L)  =   1.06691
                        Viscosity (mPa s)  =   0.32922
                        Activity of water  =   0.959
                 Ionic strength (mol/kgw)  =   1.251e+00
                       Mass of water (kg)  =   1.000e+00
                 Total alkalinity (eq/kg)  =  -8.640e-16
                         Temperature (Â°C)  = 100.00
                  Electrical balance (eq)  =   1.102e-09
 Percent error, 100*(Cat-|An|)/(Cat+|An|)  =   0.00
                               Iterations  =   3
                                  Total H  = 1.110124e+02
                                  Total O  = 5.559764e+01

----------------------------Distribution of species----------------------------

                                               Log       Log       Log    mole V
   Species          Molality    Activity  Molality  Activity     Gamma   cmÂł/mol

   OH-             1.465e-06   7.570e-07    -5.834    -6.121    -0.287     -2.34
   H+              1.036e-06   7.316e-07    -5.985    -6.136    -0.151      0.00
   H2O             5.551e+01   9.587e-01     1.744    -0.018     0.000     18.80
Ca            2.286e-02
   Ca+2            2.014e-02   3.883e-03    -1.696    -2.411    -0.715    -16.54
   CaSO4           2.714e-03   3.085e-03    -2.566    -2.511     0.056     10.99
   CaHSO4+         1.784e-08   1.444e-08    -7.749    -7.840    -0.092     (0)  
   CaOH+           1.043e-09   8.445e-10    -8.982    -9.073    -0.092     (0)  
Cl            1.200e+00
   Cl-             1.200e+00   6.601e-01     0.079    -0.180    -0.260     18.12
   HCl             3.068e-08   1.045e-07    -7.513    -6.981     0.532     23.04
H(0)          2.642e-14
   H2              1.321e-14   1.787e-14   -13.879   -13.748     0.131     18.32
Na            1.200e+00
   Na+             1.185e+00   8.206e-01     0.074    -0.086    -0.159      1.32
   NaSO4-          1.378e-02   9.695e-03    -1.861    -2.013    -0.153     23.36
   Na2SO4          8.360e-04   1.079e-03    -3.078    -2.967     0.111     29.73
O(0)          0.000e+00
   O2              0.000e+00   0.000e+00   -46.049   -45.924     0.125     33.90
S(-2)         5.226e-26
   HS-             2.694e-26   1.392e-26   -25.570   -25.856    -0.287     22.01
   H2S             2.532e-26   3.377e-26   -25.597   -25.472     0.125     46.17
   S-2             1.162e-30   1.393e-31   -29.935   -30.856    -0.921     (0)  
   (H2S)2          0.000e+00   0.000e+00   -51.901   -51.776     0.125     24.22
S(6)          2.286e-02
   NaSO4-          1.378e-02   9.695e-03    -1.861    -2.013    -0.153     23.36
   SO4-2           5.524e-03   5.902e-04    -2.258    -3.229    -0.971     16.73
   CaSO4           2.714e-03   3.085e-03    -2.566    -2.511     0.056     10.99
   Na2SO4          8.360e-04   1.079e-03    -3.078    -2.967     0.111     29.73
   HSO4-           3.821e-07   3.094e-07    -6.418    -6.509    -0.092     42.68
   CaHSO4+         1.784e-08   1.444e-08    -7.749    -7.840    -0.092     (0)  

------------------------------Saturation indices-------------------------------

  Phase               SI** log IAP   log K(373 K,   1 atm)

  Anhydrite         0.00     -5.64   -5.64  CaSO4
  Gypsum           -0.43     -5.68   -5.25  CaSO4:2H2O
  H2(g)           -10.66    -13.75   -3.09  H2
  H2O(g)           -0.02     -0.02    0.00  H2O
  H2S(g)          -23.99    -31.99   -8.00  H2S
  Halite           -1.88     -0.27    1.62  NaCl
  Mirabilite       -9.12     -3.58    5.53  Na2SO4:10H2O
  O2(g)           -42.81    -45.92   -3.11  O2
  Sulfur          -18.62    -15.13    3.48  S
  Thenardite       -2.89     -3.40   -0.51  Na2SO4

**For a gas, SI = log10(fugacity). Fugacity = pressure * phi / 1 atm.
  For ideal gases, phi = 1.

Reaction step 14.

Using solution 1.	
Using pure phase assemblage 1.	
Using reaction 1.	

Reaction 1.	

	  2.000e-01 moles of the following reaction have been added:

	                 Relative
	Reactant            moles

	NaCl                 1.00000

	                 Relative
	Element             moles
	Cl                   1.00000
	Na                   1.00000

-------------------------------Phase assemblage--------------------------------

                                                      Moles in assemblage
Phase               SI  log IAP  log K(T, P)   Initial       Final       Delta

Anhydrite         0.00    -5.64     -5.64    9.977e+00   9.976e+00  -1.100e-03

-----------------------------Solution composition------------------------------

	Elements           Molality       Moles

	Ca                2.396e-02   2.396e-02
	Cl                1.400e+00   1.400e+00
	Na                1.400e+00   1.400e+00
	S                 2.396e-02   2.396e-02

----------------------------Description of solution----------------------------

                                       pH  =   6.126      Charge balance
                                       pe  =  -0.836      Adjusted to redox equilibrium
      Specific Conductance (ÂµS/cm, 100Â°C)  = 275680
                          Density (g/cmÂł)  =   1.01308
                               Volume (L)  =   1.07107
                        Viscosity (mPa s)  =   0.33717
                        Activity of water  =   0.952
                 Ionic strength (mol/kgw)  =   1.453e+00
                       Mass of water (kg)  =   1.000e+00
                 Total alkalinity (eq/kg)  =  -1.054e-15
                         Temperature (Â°C)  = 100.00
                  Electrical balance (eq)  =   1.529e-09
 Percent error, 100*(Cat-|An|)/(Cat+|An|)  =   0.00
                               Iterations  =   3
                                  Total H  = 1.110124e+02
                                  Total O  = 5.560204e+01

----------------------------Distribution of species----------------------------

                                               Log       Log       Log    mole V
   Species          Molality    Activity  Molality  Activity     Gamma   cmÂł/mol

   OH-             1.452e-06   7.348e-07    -5.838    -6.134    -0.296     -1.95
   H+              1.066e-06   7.484e-07    -5.972    -6.126    -0.153      0.00
   H2O             5.551e+01   9.519e-01     1.744    -0.021     0.000     18.80
Ca            2.396e-02
   Ca+2            2.130e-02   4.201e-03    -1.672    -2.377    -0.705    -16.40
   CaSO4           2.658e-03   3.085e-03    -2.575    -2.511     0.065     10.99
   CaHSO4+         1.722e-08   1.478e-08    -7.764    -7.830    -0.066     (0)  
   CaOH+           1.033e-09   8.868e-10    -8.986    -9.052    -0.066     (0)  
Cl            1.400e+00
   Cl-             1.400e+00   7.607e-01     0.146    -0.119    -0.265     18.26
   HCl             2.967e-08   1.232e-07    -7.528    -6.909     0.618     23.04
H(0)          1.447e-14
   H2              7.236e-15   1.028e-14   -14.140   -13.988     0.153     18.32
Na            1.400e+00
   Na+             1.383e+00   9.782e-01     0.141    -0.010    -0.150      1.36
   NaSO4-          1.475e-02   1.068e-02    -1.831    -1.971    -0.140     24.25
   Na2SO4          1.054e-03   1.417e-03    -2.977    -2.849     0.129     29.73
O(0)          0.000e+00
   O2              0.000e+00   0.000e+00   -45.595   -45.450     0.145     33.90
S(-2)         5.566e-27
   HS-             2.932e-27   1.483e-27   -26.533   -26.829    -0.296     22.19
   H2S             2.635e-27   3.681e-27   -26.579   -26.434     0.145     46.17
   S-2             1.277e-31   1.451e-32   -30.894   -31.838    -0.945     (0)  
   (H2S)2          0.000e+00   0.000e+00   -53.846   -53.701     0.145     24.22
S(6)          2.396e-02
   NaSO4-          1.475e-02   1.068e-02    -1.831    -1.971    -0.140     24.25
   SO4-2           5.490e-03   5.455e-04    -2.260    -3.263    -1.003     17.27
   CaSO4           2.658e-03   3.085e-03    -2.575    -2.511     0.065     10.99
   Na2SO4          1.054e-03   1.417e-03    -2.977    -2.849     0.129     29.73
   HSO4-           3.409e-07   2.926e-07    -6.467    -6.534    -0.066     42.81
   CaHSO4+         1.722e-08   1.478e-08    -7.764    -7.830    -0.066     (0)  

------------------------------Saturation indices-------------------------------

  Phase               SI** log IAP   log K(373 K,   1 atm)

  Anhydrite         0.00     -5.64   -5.64  CaSO4
  Gypsum           -0.43     -5.68   -5.25  CaSO4:2H2O
  H2(g)           -10.90    -13.99   -3.09  H2
  H2O(g)           -0.03     -0.02    0.00  H2O
  H2S(g)          -24.95    -32.95   -8.00  H2S
  Halite           -1.75     -0.13    1.62  NaCl
  Mirabilite       -9.03     -3.50    5.53  Na2SO4:10H2O
  O2(g)           -42.34    -45.45   -3.11  O2
  Sulfur          -19.34    -15.86    3.48  S
  Thenardite       -2.77     -3.28   -0.51  Na2SO4

**For a gas, SI = log10(fugacity). Fugacity = pressure * phi / 1 atm.
  For ideal gases, phi = 1.

Reaction step 15.

Using solution 1.	
Using pure phase assemblage 1.	
Using reaction 1.	

Reaction 1.	

	  2.000e-01 moles of the following reaction have been added:

	                 Relative
	Reactant            moles

	NaCl                 1.00000

	                 Relative
	Element             moles
	Cl                   1.00000
	Na                   1.00000

-------------------------------Phase assemblage--------------------------------

                                                      Moles in assemblage
Phase               SI  log IAP  log K(T, P)   Initial       Final       Delta

Anhydrite         0.00    -5.64     -5.64    9.976e+00   9.975e+00  -8.949e-04

-----------------------------Solution composition------------------------------

	Elements           Molality       Moles

	Ca                2.485e-02   2.485e-02
	Cl                1.600e+00   1.600e+00
	Na                1.600e+00   1.600e+00
	S                 2.485e-02   2.485e-02

----------------------------Description of solution----------------------------

                                       pH  =   6.117      Charge balance
                                       pe  =  -0.955      Adjusted to redox equilibrium
      Specific Conductance (ÂµS/cm, 100Â°C)  = 304477
                          Density (g/cmÂł)  =   1.02010
                               Volume (L)  =   1.07528
                        Viscosity (mPa s)  =   0.34524
                        Activity of water  =   0.945
                 Ionic strength (mol/kgw)  =   1.654e+00
                       Mass of water (kg)  =   1.000e+00
                 Total alkalinity (eq/kg)  =  -1.282e-15
                         Temperature (Â°C)  = 100.00
                  Electrical balance (eq)  =   1.706e-09
 Percent error, 100*(Cat-|An|)/(Cat+|An|)  =   0.00
                               Iterations  =   3
                                  Total H  = 1.110124e+02
                                  Total O  = 5.560562e+01

----------------------------Distribution of species----------------------------

                                               Log       Log       Log    mole V
   Species          Molality    Activity  Molality  Activity     Gamma   cmÂł/mol

   OH-             1.439e-06   7.152e-07    -5.842    -6.146    -0.304     -1.57
   H+              1.092e-06   7.634e-07    -5.962    -6.117    -0.156      0.00
   H2O             5.551e+01   9.451e-01     1.744    -0.025     0.000     18.80
Ca            2.485e-02
   Ca+2            2.225e-02   4.526e-03    -1.653    -2.344    -0.692    -16.27
   CaSO4           2.604e-03   3.085e-03    -2.584    -2.511     0.074     10.99
   CaHSO4+         1.652e-08   1.507e-08    -7.782    -7.822    -0.040     (0)  
   CaOH+           1.019e-09   9.300e-10    -8.992    -9.032    -0.040     (0)  
Cl            1.600e+00
   Cl-             1.600e+00   8.613e-01     0.204    -0.065    -0.269     18.38
   HCl             2.813e-08   1.423e-07    -7.551    -6.847     0.704     23.04
H(0)          2.471e-14
   H2              1.235e-14   1.843e-14   -13.908   -13.735     0.174     18.32
Na            1.600e+00
   Na+             1.582e+00   1.145e+00     0.199     0.059    -0.140      1.40
   NaSO4-          1.553e-02   1.161e-02    -1.809    -1.935    -0.126     25.08
   Na2SO4          1.286e-03   1.801e-03    -2.891    -2.744     0.146     29.73
O(0)          0.000e+00
   O2              0.000e+00   0.000e+00   -46.128   -45.963     0.165     33.90
S(-2)         5.581e-26
   HS-             3.001e-26   1.491e-26   -25.523   -25.826    -0.304     22.35
   H2S             2.580e-26   3.776e-26   -25.588   -25.423     0.165     46.17
   S-2             1.318e-30   1.430e-31   -29.880   -30.845    -0.964     (0)  
   (H2S)2          0.000e+00   0.000e+00   -51.845   -51.679     0.165     24.22
S(6)          2.485e-02
   NaSO4-          1.553e-02   1.161e-02    -1.809    -1.935    -0.126     25.08
   SO4-2           5.433e-03   5.063e-04    -2.265    -3.296    -1.031     17.82
   CaSO4           2.604e-03   3.085e-03    -2.584    -2.511     0.074     10.99
   Na2SO4          1.286e-03   1.801e-03    -2.891    -2.744     0.146     29.73
   HSO4-           3.036e-07   2.770e-07    -6.518    -6.558    -0.040     42.93
   CaHSO4+         1.652e-08   1.507e-08    -7.782    -7.822    -0.040     (0)  

------------------------------Saturation indices-------------------------------

  Phase               SI** log IAP   log K(373 K,   1 atm)

  Anhydrite         0.00     -5.64   -5.64  CaSO4
  Gypsum           -0.44     -5.69   -5.25  CaSO4:2H2O
  H2(g)           -10.65    -13.73   -3.09  H2
  H2O(g)           -0.03     -0.02    0.00  H2O
  H2S(g)          -23.94    -31.94   -8.00  H2S
  Halite           -1.62     -0.01    1.62  NaCl
  Mirabilite       -8.96     -3.42    5.53  Na2SO4:10H2O
  O2(g)           -42.85    -45.96   -3.11  O2
  Sulfur          -18.58    -15.10    3.48  S
  Thenardite       -2.66     -3.18   -0.51  Na2SO4

**For a gas, SI = log10(fugacity). Fugacity = pressure * phi / 1 atm.
  For ideal gases, phi = 1.

Reaction step 16.

Using solution 1.	
Using pure phase assemblage 1.	
Using reaction 1.	

Reaction 1.	

	  2.000e-01 moles of the following reaction have been added:

	                 Relative
	Reactant            moles

	NaCl                 1.00000

	                 Relative
	Element             moles
	Cl                   1.00000
	Na                   1.00000

-------------------------------Phase assemblage--------------------------------

                                                      Moles in assemblage
Phase               SI  log IAP  log K(T, P)   Initial       Final       Delta

Anhydrite         0.00    -5.64     -5.64    9.975e+00   9.974e+00  -7.236e-04

-----------------------------Solution composition------------------------------

	Elements           Molality       Moles

	Ca                2.558e-02   2.558e-02
	Cl                1.800e+00   1.800e+00
	Na                1.800e+00   1.800e+00
	S                 2.558e-02   2.558e-02

[...]
                 Total alkalinity (eq/kg)  =  -1.111e-16
                         Temperature (Â°C)  =  25.00
                  Electrical balance (eq)  =   1.111e-16
 Percent error, 100*(Cat-|An|)/(Cat+|An|)  =   0.00
                               Iterations  =   0
                                  Total H  = 1.110124e+02
                                  Total O  = 5.550622e+01

----------------------------Distribution of species----------------------------

                                               Log       Log       Log    mole V
   Species          Molality    Activity  Molality  Activity     Gamma   cmÂł/mol

   H+              1.006e-07   1.006e-07    -6.997    -6.997    -0.000      0.00
   OH-             1.006e-07   1.006e-07    -6.997    -6.997    -0.000     -4.14
   H2O             5.551e+01   1.000e+00     1.744    -0.000     0.000     18.07
H(0)          2.201e-39
   H2              1.101e-39   1.101e-39   -38.958   -38.958     0.000     14.99
O(0)          7.163e-15
   O2              3.582e-15   3.582e-15   -14.446   -14.446     0.000     30.40

------------------------------Saturation indices-------------------------------

  Phase               SI** log IAP   log K(298 K,   1 atm)

  H2(g)           -35.86    -38.96   -3.10  H2
  H2O(g)           -1.50     -0.00    1.50  H2O
  O2(g)           -11.55    -14.45   -2.89  O2

**For a gas, SI = log10(fugacity). Fugacity = pressure * phi / 1 atm.
  For ideal gases, phi = 1.

Reaction step 22.

Using solution 1.	
Using temperature 1.	

-----------------------------Solution composition------------------------------

	Elements           Molality       Moles

	Pure water     

----------------------------Description of solution----------------------------

                                       pH  =   6.997      Charge balance
                                       pe  =  10.907      Adjusted to redox equilibrium
      Specific Conductance (ÂµS/cm,  25Â°C)  = 0
                          Density (g/cmÂł)  =   0.99704
                               Volume (L)  =   1.00297
                        Viscosity (mPa s)  =   0.89002
                        Activity of water  =   1.000
                 Ionic strength (mol/kgw)  =   1.006e-07
                       Mass of water (kg)  =   1.000e+00
                 Total alkalinity (eq/kg)  =  -1.111e-16
                         Temperature (Â°C)  =  25.00
                  Electrical balance (eq)  =   1.111e-16
 Percent error, 100*(Cat-|An|)/(Cat+|An|)  =   0.00
                               Iterations  =   0
                                  Total H  = 1.110124e+02
                                  Total O  = 5.550622e+01

----------------------------Distribution of species----------------------------

                                               Log       Log       Log    mole V
   Species          Molality    Activity  Molality  Activity     Gamma   cmÂł/mol

   H+              1.006e-07   1.006e-07    -6.997    -6.997    -0.000      0.00
   OH-             1.006e-07   1.006e-07    -6.997    -6.997    -0.000     -4.14
   H2O             5.551e+01   1.000e+00     1.744    -0.000     0.000     18.07
H(0)          2.201e-39
   H2              1.101e-39   1.101e-39   -38.958   -38.958     0.000     14.99
O(0)          7.163e-15
   O2              3.582e-15   3.582e-15   -14.446   -14.446     0.000     30.40

------------------------------Saturation indices-------------------------------

  Phase               SI** log IAP   log K(298 K,   1 atm)

  H2(g)           -35.86    -38.96   -3.10  H2
  H2O(g)           -1.50     -0.00    1.50  H2O
  O2(g)           -11.55    -14.45   -2.89  O2

**For a gas, SI = log10(fugacity). Fugacity = pressure * phi / 1 atm.
  For ideal gases, phi = 1.

Reaction step 23.

Using solution 1.	
Using temperature 1.	

-----------------------------Solution composition------------------------------

	Elements           Molality       Moles

	Pure water     

----------------------------Description of solution----------------------------

                                       pH  =   6.997      Charge balance
                                       pe  =  10.907      Adjusted to redox equilibrium
      Specific Conductance (ÂµS/cm,  25Â°C)  = 0
                          Density (g/cmÂł)  =   0.99704
                               Volume (L)  =   1.00297
                        Viscosity (mPa s)  =   0.89002
                        Activity of water  =   1.000
                 Ionic strength (mol/kgw)  =   1.006e-07
                       Mass of water (kg)  =   1.000e+00
                 Total alkalinity (eq/kg)  =  -1.111e-16
                         Temperature (Â°C)  =  25.00
                  Electrical balance (eq)  =   1.111e-16
 Percent error, 100*(Cat-|An|)/(Cat+|An|)  =   0.00
                               Iterations  =   0
                                  Total H  = 1.110124e+02
                                  Total O  = 5.550622e+01

----------------------------Distribution of species----------------------------

                                               Log       Log       Log    mole V
   Species          Molality    Activity  Molality  Activity     Gamma   cmÂł/mol

   H+              1.006e-07   1.006e-07    -6.997    -6.997    -0.000      0.00
   OH-             1.006e-07   1.006e-07    -6.997    -6.997    -0.000     -4.14
   H2O             5.551e+01   1.000e+00     1.744    -0.000     0.000     18.07
H(0)          2.201e-39
   H2              1.101e-39   1.101e-39   -38.958   -38.958     0.000     14.99
O(0)          7.163e-15
   O2              3.582e-15   3.582e-15   -14.446   -14.446     0.000     30.40

------------------------------Saturation indices-------------------------------

  Phase               SI** log IAP   log K(298 K,   1 atm)

  H2(g)           -35.86    -38.96   -3.10  H2
  H2O(g)           -1.50     -0.00    1.50  H2O
  O2(g)           -11.55    -14.45   -2.89  O2

**For a gas, SI = log10(fugacity). Fugacity = pressure * phi / 1 atm.
  For ideal gases, phi = 1.

Reaction step 24.

Using solution 1.	
Using temperature 1.	

-----------------------------Solution composition------------------------------

	Elements           Molality       Moles

	Pure water     

----------------------------Description of solution----------------------------

                                       pH  =   6.997      Charge balance
                                       pe  =  10.907      Adjusted to redox equilibrium
      Specific Conductance (ÂµS/cm,  25Â°C)  = 0
                          Density (g/cmÂł)  =   0.99704
                               Volume (L)  =   1.00297
                        Viscosity (mPa s)  =   0.89002
                        Activity of water  =   1.000
                 Ionic strength (mol/kgw)  =   1.006e-07
                       Mass of water (kg)  =   1.000e+00
                 Total alkalinity (eq/kg)  =  -1.111e-16
                         Temperature (Â°C)  =  25.00
                  Electrical balance (eq)  =   1.111e-16
 Percent error, 100*(Cat-|An|)/(Cat+|An|)  =   0.00
                               Iterations  =   0
                                  Total H  = 1.110124e+02
                                  Total O  = 5.550622e+01

----------------------------Distribution of species----------------------------

                                               Log       Log       Log    mole V
   Species          Molality    Activity  Molality  Activity     Gamma   cmÂł/mol

   H+              1.006e-07   1.006e-07    -6.997    -6.997    -0.000      0.00
   OH-             1.006e-07   1.006e-07    -6.997    -6.997    -0.000     -4.14
   H2O             5.551e+01   1.000e+00     1.744    -0.000     0.000     18.07
H(0)          2.201e-39
   H2              1.101e-39   1.101e-39   -38.958   -38.958     0.000     14.99
O(0)          7.163e-15
   O2              3.582e-15   3.582e-15   -14.446   -14.446     0.000     30.40

------------------------------Saturation indices-------------------------------

  Phase               SI** log IAP   log K(298 K,   1 atm)

  H2(g)           -35.86    -38.96   -3.10  H2
  H2O(g)           -1.50     -0.00    1.50  H2O
  O2(g)           -11.55    -14.45   -2.89  O2

**For a gas, SI = log10(fugacity). Fugacity = pressure * phi / 1 atm.
  For ideal gases, phi = 1.

Reaction step 25.

Using solution 1.	
Using temperature 1.	

-----------------------------Solution composition------------------------------

	Elements           Molality       Moles

	Pure water     

----------------------------Description of solution----------------------------

                                       pH  =   6.997      Charge balance
                                       pe  =  10.907      Adjusted to redox equilibrium
      Specific Conductance (ÂµS/cm,  25Â°C)  = 0
                          Density (g/cmÂł)  =   0.99704
                               Volume (L)  =   1.00297
                        Viscosity (mPa s)  =   0.89002
                        Activity of water  =   1.000
                 Ionic strength (mol/kgw)  =   1.006e-07
                       Mass of water (kg)  =   1.000e+00
                 Total alkalinity (eq/kg)  =  -1.111e-16
                         Temperature (Â°C)  =  25.00
                  Electrical balance (eq)  =   1.111e-16
 Percent error, 100*(Cat-|An|)/(Cat+|An|)  =   0.00
                               Iterations  =   0
                                  Total H  = 1.110124e+02
                                  Total O  = 5.550622e+01

----------------------------Distribution of species----------------------------

                                               Log       Log       Log    mole V
   Species          Molality    Activity  Molality  Activity     Gamma   cmÂł/mol

   H+              1.006e-07   1.006e-07    -6.997    -6.997    -0.000      0.00
   OH-             1.006e-07   1.006e-07    -6.997    -6.997    -0.000     -4.14
   H2O             5.551e+01   1.000e+00     1.744    -0.000     0.000     18.07
H(0)          2.201e-39
   H2              1.101e-39   1.101e-39   -38.958   -38.958     0.000     14.99
O(0)          7.163e-15
   O2              3.582e-15   3.582e-15   -14.446   -14.446     0.000     30.40

------------------------------Saturation indices-------------------------------

  Phase               SI** log IAP   log K(298 K,   1 atm)

  H2(g)           -35.86    -38.96   -3.10  H2
  H2O(g)           -1.50     -0.00    1.50  H2O
  O2(g)           -11.55    -14.45   -2.89  O2

**For a gas, SI = log10(fugacity). Fugacity = pressure * phi / 1 atm.
  For ideal gases, phi = 1.

Reaction step 26.

Using solution 1.	
Using temperature 1.	

-----------------------------Solution composition------------------------------

	Elements           Molality       Moles

	Pure water     

----------------------------Description of solution----------------------------

                                       pH  =   6.997      Charge balance
                                       pe  =  10.907      Adjusted to redox equilibrium
      Specific Conductance (ÂµS/cm,  25Â°C)  = 0
                          Density (g/cmÂł)  =   0.99704
                               Volume (L)  =   1.00297
                        Viscosity (mPa s)  =   0.89002
                        Activity of water  =   1.000
                 Ionic strength (mol/kgw)  =   1.006e-07
                       Mass of water (kg)  =   1.000e+00
                 Total alkalinity (eq/kg)  =  -1.111e-16
                         Temperature (Â°C)  =  25.00
                  Electrical balance (eq)  =   1.111e-16
 Percent error, 100*(Cat-|An|)/(Cat+|An|)  =   0.00
                               Iterations  =   0
                                  Total H  = 1.110124e+02
                                  Total O  = 5.550622e+01

----------------------------Distribution of species----------------------------

                                               Log       Log       Log    mole V
   Species          Molality    Activity  Molality  Activity     Gamma   cmÂł/mol

   H+              1.006e-07   1.006e-07    -6.997    -6.997    -0.000      0.00
   OH-             1.006e-07   1.006e-07    -6.997    -6.997    -0.000     -4.14
   H2O             5.551e+01   1.000e+00     1.744    -0.000     0.000     18.07
H(0)          2.201e-39
   H2              1.101e-39   1.101e-39   -38.958   -38.958     0.000     14.99
O(0)          7.163e-15
   O2              3.582e-15   3.582e-15   -14.446   -14.446     0.000     30.40

------------------------------Saturation indices-------------------------------

  Phase               SI** log IAP   log K(298 K,   1 atm)

  H2(g)           -35.86    -38.96   -3.10  H2
  H2O(g)           -1.50     -0.00    1.50  H2O
  O2(g)           -11.55    -14.45   -2.89  O2

**For a gas, SI = log10(fugacity). Fugacity = pressure * phi / 1 atm.
  For ideal gases, phi = 1.

Reaction step 27.

Using solution 1.	
Using temperature 1.	

-----------------------------Solution composition------------------------------

	Elements           Molality       Moles

	Pure water     

----------------------------Description of solution----------------------------

                                       pH  =   6.997      Charge balance
                                       pe  =  10.907      Adjusted to redox equilibrium
      Specific Conductance (ÂµS/cm,  25Â°C)  = 0
                          Density (g/cmÂł)  =   0.99704
                               Volume (L)  =   1.00297
                        Viscosity (mPa s)  =   0.89002
                        Activity of water  =   1.000
                 Ionic strength (mol/kgw)  =   1.006e-07
                       Mass of water (kg)  =   1.000e+00
                 Total alkalinity (eq/kg)  =  -1.111e-16
                         Temperature (Â°C)  =  25.00
                  Electrical balance (eq)  =   1.111e-16
 Percent error, 100*(Cat-|An|)/(Cat+|An|)  =   0.00
                               Iterations  =   0
                                  Total H  = 1.110124e+02
                                  Total O  = 5.550622e+01

----------------------------Distribution of species----------------------------

                                               Log       Log       Log    mole V
   Species          Molality    Activity  Molality  Activity     Gamma   cmÂł/mol

   H+              1.006e-07   1.006e-07    -6.997    -6.997    -0.000      0.00
   OH-             1.006e-07   1.006e-07    -6.997    -6.997    -0.000     -4.14
   H2O             5.551e+01   1.000e+00     1.744    -0.000     0.000     18.07
H(0)          2.201e-39
   H2              1.101e-39   1.101e-39   -38.958   -38.958     0.000     14.99
O(0)          7.163e-15
   O2              3.582e-15   3.582e-15   -14.446   -14.446     0.000     30.40

------------------------------Saturation indices-------------------------------

  Phase               SI** log IAP   log K(298 K,   1 atm)

  H2(g)           -35.86    -38.96   -3.10  H2
  H2O(g)           -1.50     -0.00    1.50  H2O
  O2(g)           -11.55    -14.45   -2.89  O2

**For a gas, SI = log10(fugacity). Fugacity = pressure * phi / 1 atm.
  For ideal gases, phi = 1.

Reaction step 28.

Using solution 1.	
Using temperature 1.	

-----------------------------Solution composition------------------------------

	Elements           Molality       Moles

	Pure water     

----------------------------Description of solution----------------------------

                                       pH  =   6.997      Charge balance
                                       pe  =  10.907      Adjusted to redox equilibrium
      Specific Conductance (ÂµS/cm,  25Â°C)  = 0
                          Density (g/cmÂł)  =   0.99704
                               Volume (L)  =   1.00297
                        Viscosity (mPa s)  =   0.89002
                        Activity of water  =   1.000
                 Ionic strength (mol/kgw)  =   1.006e-07
                       Mass of water (kg)  =   1.000e+00
                 Total alkalinity (eq/kg)  =  -1.111e-16
                         Temperature (Â°C)  =  25.00
                  Electrical balance (eq)  =   1.111e-16
 Percent error, 100*(Cat-|An|)/(Cat+|An|)  =   0.00
                               Iterations  =   0
                                  Total H  = 1.110124e+02
                                  Total O  = 5.550622e+01

----------------------------Distribution of species----------------------------

                                               Log       Log       Log    mole V
   Species          Molality    Activity  Molality  Activity     Gamma   cmÂł/mol

   H+              1.006e-07   1.006e-07    -6.997    -6.997    -0.000      0.00
   OH-             1.006e-07   1.006e-07    -6.997    -6.997    -0.000     -4.14
   H2O             5.551e+01   1.000e+00     1.744    -0.000     0.000     18.07
H(0)          2.201e-39
   H2              1.101e-39   1.101e-39   -38.958   -38.958     0.000     14.99
O(0)          7.163e-15
   O2              3.582e-15   3.582e-15   -14.446   -14.446     0.000     30.40

------------------------------Saturation indices-------------------------------

  Phase               SI** log IAP   log K(298 K,   1 atm)

  H2(g)           -35.86    -38.96   -3.10  H2
  H2O(g)           -1.50     -0.00    1.50  H2O
  O2(g)           -11.55    -14.45   -2.89  O2

**For a gas, SI = log10(fugacity). Fugacity = pressure * phi / 1 atm.
  For ideal gases, phi = 1.

Reaction step 29.

Using solution 1.	
Using temperature 1.	

-----------------------------Solution composition------------------------------

	Elements           Molality       Moles

	Pure water     

----------------------------Description of solution----------------------------

                                       pH  =   6.997      Charge balance
                                       pe  =  10.907      Adjusted to redox equilibrium
      Specific Conductance (ÂµS/cm,  25Â°C)  = 0
                          Density (g/cmÂł)  =   0.99704
                               Volume (L)  =   1.00297
                        Viscosity (mPa s)  =   0.89002
                        Activity of water  =   1.000
                 Ionic strength (mol/kgw)  =   1.006e-07
                       Mass of water (kg)  =   1.000e+00
                 Total alkalinity (eq/kg)  =  -1.111e-16
                         Temperature (Â°C)  =  25.00
                  Electrical balance (eq)  =   1.111e-16
 Percent error, 100*(Cat-|An|)/(Cat+|An|)  =   0.00
                               Iterations  =   0
                                  Total H  = 1.110124e+02
                                  Total O  = 5.550622e+01

----------------------------Distribution of species----------------------------

                                               Log       Log       Log    mole V
   Species          Molality    Activity  Molality  Activity     Gamma   cmÂł/mol

   H+              1.006e-07   1.006e-07    -6.997    -6.997    -0.000      0.00
   OH-             1.006e-07   1.006e-07    -6.997    -6.997    -0.000     -4.14
   H2O             5.551e+01   1.000e+00     1.744    -0.000     0.000     18.07
H(0)          2.201e-39
   H2              1.101e-39   1.101e-39   -38.958   -38.958     0.000     14.99
O(0)          7.163e-15
   O2              3.582e-15   3.582e-15   -14.446   -14.446     0.000     30.40

------------------------------Saturation indices-------------------------------

  Phase               SI** log IAP   log K(298 K,   1 atm)

  H2(g)           -35.86    -38.96   -3.10  H2
  H2O(g)           -1.50     -0.00    1.50  H2O
  O2(g)           -11.55    -14.45   -2.89  O2

**For a gas, SI = log10(fugacity). Fugacity = pressure * phi / 1 atm.
  For ideal gases, phi = 1.

------------------
End of simulation.
------------------

------------------------------------
Reading input data for simulation 8.
------------------------------------

