WARNING: Database file from DATABASE keyword is used; command line argument ignored.
   Input file: Apelbl_Na2CO3
  Output file: Apelbl_Na2CO3.out
Database file: ../database/phreeqc.dat

------------------
Reading data base.
------------------

	SOLUTION_MASTER_SPECIES
	SOLUTION_SPECIES
	PHASES
	GAS_BINARY_PARAMETERS
	EXCHANGE_MASTER_SPECIES
	EXCHANGE_SPECIES
	SURFACE_MASTER_SPECIES
	SURFACE_SPECIES
	MEAN_GAMMAS
	RATES
	END
------------------------------------
Reading input data for simulation 1.
------------------------------------

	DATABASE ../database/phreeqc.dat
	SELECTED_OUTPUT 101
	    file                 Apelbl_Na2CO3_101.sel
	USER_PUNCH 101
	    headings Mu SC
	    start
	10 PUNCH STR_F$(MU, 20, 12)
	20 PUNCH STR_F$(SC, 20, 10)
	    end
	SOLUTION 1
	 pH 7 charge
	 Na 0.2e3
	 C(4) 0.1e3
	SOLUTION 2
	 pH 7 charge
	 Na 1e3
	 C(4) 0.5e3
	SOLUTION 3
	 pH 7 charge
	 Na 2e3
	 C(4) 1e3
	END
-------------------------------------------
Beginning of initial solution calculations.
-------------------------------------------

Initial solution 1.	

-----------------------------Solution composition------------------------------

	Elements           Molality       Moles

	C(4)              1.000e-01   1.000e-01
	Na                2.000e-01   2.000e-01

----------------------------Description of solution----------------------------

                                       pH  =  11.367      Charge balance
                                       pe  =   4.000    
      Specific Conductance (µS/cm,  25°C)  = 15546
                          Density (g/cm³)  =   1.00796
                               Volume (L)  =   1.00268
                        Viscosity (mPa s)  =   0.94214
                        Activity of water  =   0.995
                 Ionic strength (mol/kgw)  =   2.964e-01
                       Mass of water (kg)  =   1.000e+00
                 Total alkalinity (eq/kg)  =   2.000e-01
                       Total CO2 (mol/kg)  =   1.000e-01
                         Temperature (°C)  =  25.00
                  Electrical balance (eq)  =  -2.439e-11
 Percent error, 100*(Cat-|An|)/(Cat+|An|)  =  -0.00
                               Iterations  =  10
                                  Total H  = 1.110194e+02
                                  Total O  = 5.580969e+01

----------------------------Distribution of species----------------------------

                                               Log       Log       Log    mole V
   Species          Molality    Activity  Molality  Activity     Gamma   cm³/mol

   OH-             3.472e-03   2.344e-03    -2.459    -2.630    -0.171     -3.30
   H+              5.490e-12   4.297e-12   -11.260   -11.367    -0.106      0.00
   H2O             5.551e+01   9.948e-01     1.744    -0.002     0.000     18.07
C(4)          1.000e-01
   CO3-2           9.653e-02   2.628e-02    -1.015    -1.580    -0.565     -2.10
   HCO3-           3.316e-03   2.408e-03    -2.479    -2.618    -0.139     26.41
   NaHCO3          1.568e-04   1.738e-04    -3.805    -3.760     0.045     17.66
   CO2             2.235e-08   2.338e-08    -7.651    -7.631     0.020     34.79
   (CO2)2          8.496e-18   8.888e-18   -17.071   -17.051     0.020     68.75
H(0)          2.433e-34
   H2              1.217e-34   1.307e-34   -33.915   -33.884     0.031     14.99
Na            2.000e-01
   Na+             1.998e-01   1.460e-01    -0.699    -0.836    -0.136     -0.82
   NaHCO3          1.568e-04   1.738e-04    -3.805    -3.760     0.045     17.66
O(0)          4.697e-25
   O2              2.348e-25   2.514e-25   -24.629   -24.600     0.030     30.40

------------------------------Saturation indices-------------------------------

  Phase               SI** log IAP   log K(298 K,   1 atm)

  CO2(g)           -6.16     -7.63   -1.47  CO2
  H2(g)           -30.78    -33.88   -3.10  H2
  H2O(g)           -1.51     -0.00    1.50  H2O
  O2(g)           -21.71    -24.60   -2.89  O2

**For a gas, SI = log10(fugacity). Fugacity = pressure * phi / 1 atm.
  For ideal gases, phi = 1.

Initial solution 2.	

-----------------------------Solution composition------------------------------

	Elements           Molality       Moles

	C(4)              5.000e-01   5.000e-01
	Na                1.000e+00   1.000e+00

----------------------------Description of solution----------------------------

                                       pH  =  11.613      Charge balance
                                       pe  =   4.000    
      Specific Conductance (µS/cm,  25°C)  = 53844
                          Density (g/cm³)  =   1.04913
                               Volume (L)  =   1.00381
                        Viscosity (mPa s)  =   1.19379
                        Activity of water  =   0.974
                 Ionic strength (mol/kgw)  =   1.492e+00
                       Mass of water (kg)  =   1.000e+00
                 Total alkalinity (eq/kg)  =   1.000e+00
                       Total CO2 (mol/kg)  =   5.000e-01
                         Temperature (°C)  =  25.00
                  Electrical balance (eq)  =  -2.518e-11
 Percent error, 100*(Cat-|An|)/(Cat+|An|)  =  -0.00
                               Iterations  =  10 (20 overall)
                                  Total H  = 1.110271e+02
                                  Total O  = 5.701357e+01

----------------------------Distribution of species----------------------------

                                               Log       Log       Log    mole V
   Species          Molality    Activity  Molality  Activity     Gamma   cm³/mol

   OH-             7.349e-03   4.047e-03    -2.134    -2.393    -0.259     -1.36
   H+              3.326e-12   2.437e-12   -11.478   -11.613    -0.135      0.00
   H2O             5.551e+01   9.744e-01     1.744    -0.011     0.000     18.07
C(4)          5.000e-01
   CO3-2           4.927e-01   8.047e-02    -0.307    -1.094    -0.787      1.44
   HCO3-           6.404e-03   4.182e-03    -2.194    -2.379    -0.185     30.93
   NaHCO3          9.456e-04   1.588e-03    -3.024    -2.799     0.225     17.66
   CO2             1.874e-08   2.351e-08    -7.727    -7.629     0.098     34.79
   (CO2)2          7.165e-18   8.988e-18   -17.145   -17.046     0.098     68.75
H(0)          5.862e-35
   H2              2.931e-35   4.204e-35   -34.533   -34.376     0.157     14.99
Na            1.000e+00
   Na+             9.991e-01   7.686e-01    -0.000    -0.114    -0.114     -0.07
   NaHCO3          9.456e-04   1.588e-03    -3.024    -2.799     0.225     17.66
O(0)          3.307e-24
   O2              1.654e-24   2.331e-24   -23.782   -23.632     0.149     30.40

------------------------------Saturation indices-------------------------------

  Phase               SI** log IAP   log K(298 K,   1 atm)

  CO2(g)           -6.16     -7.63   -1.47  CO2
  H2(g)           -31.28    -34.38   -3.10  H2
  H2O(g)           -1.51     -0.01    1.50  H2O
  O2(g)           -20.74    -23.63   -2.89  O2

**For a gas, SI = log10(fugacity). Fugacity = pressure * phi / 1 atm.
  For ideal gases, phi = 1.

Initial solution 3.	

-----------------------------Solution composition------------------------------

	Elements           Molality       Moles

	C(4)              1.000e+00   1.000e+00
	Na                2.000e+00   2.000e+00

----------------------------Description of solution----------------------------

                                       pH  =  11.729      Charge balance
                                       pe  =   4.000    
      Specific Conductance (µS/cm,  25°C)  = 81883
                          Density (g/cm³)  =   1.09695
                               Volume (L)  =   1.00841
                        Viscosity (mPa s)  =   1.62949
                        Activity of water  =   0.949
                 Ionic strength (mol/kgw)  =   2.988e+00
                       Mass of water (kg)  =   1.000e+00
                 Total alkalinity (eq/kg)  =   2.000e+00
                       Total CO2 (mol/kg)  =   1.000e+00
                         Temperature (°C)  =  25.00
                  Electrical balance (eq)  =  -5.559e-09
 Percent error, 100*(Cat-|An|)/(Cat+|An|)  =  -0.00
                               Iterations  =  10 (30 overall)
                                  Total H  = 1.110327e+02
                                  Total O  = 5.851636e+01

----------------------------Distribution of species----------------------------

                                               Log       Log       Log    mole V
   Species          Molality    Activity  Molality  Activity     Gamma   cm³/mol

   OH-             1.014e-02   5.140e-03    -1.994    -2.289    -0.295      0.75
   H+              2.605e-12   1.868e-12   -11.584   -11.729    -0.144      0.00
   H2O             5.551e+01   9.489e-01     1.744    -0.023     0.000     18.07
C(4)          1.000e+00
   CO3-2           9.899e-01   1.344e-01    -0.004    -0.872    -0.867      4.20
   HCO3-           8.358e-03   5.353e-03    -2.078    -2.271    -0.194     35.52
   NaHCO3          1.783e-03   5.040e-03    -2.749    -2.298     0.451     17.66
   CO2             1.505e-08   2.370e-08    -7.822    -7.625     0.197     34.79
   (CO2)2          5.798e-18   9.131e-18   -17.237   -17.039     0.197     68.75
H(0)          2.400e-35
   H2              1.200e-35   2.471e-35   -34.921   -34.607     0.314     14.99
Na            2.000e+00
   Na+             1.998e+00   1.905e+00     0.301     0.280    -0.021      0.48
   NaHCO3          1.783e-03   5.040e-03    -2.749    -2.298     0.451     17.66
O(0)          6.431e-24
   O2              3.215e-24   6.398e-24   -23.493   -23.194     0.299     30.40

------------------------------Saturation indices-------------------------------

  Phase               SI** log IAP   log K(298 K,   1 atm)

  CO2(g)           -6.16     -7.63   -1.47  CO2
  H2(g)           -31.51    -34.61   -3.10  H2
  H2O(g)           -1.53     -0.02    1.50  H2O
  O2(g)           -20.30    -23.19   -2.89  O2

**For a gas, SI = log10(fugacity). Fugacity = pressure * phi / 1 atm.
  For ideal gases, phi = 1.

------------------
End of simulation.
------------------

------------------------------------
Reading input data for simulation 2.
------------------------------------

	REACTION_TEMPERATURE 1
	5 70 in 20
	USE solution 1
	USER_GRAPH
	 -connect_simulations false
	 -plot_csv_file Apelbl_Na2CO3.dat
	 10 graph_x tc
	 30 th = 1 - Tk / 647.096
	 40 b1 = 1.99274064
	 41 b2 = 1.09965342
	 42 b3 = -0.510839303
	 50 b4 = -1.75493479
	 51 b5 = -45.5170352
	 52 b6 = -6.7469445e5
	 60 rho0 = 322.0 * (1.0 + b1 * th^(1./3.) + b2 * th^(2./3.) + b3 * th^(5./3.) + 	b4 * th^(16./3.) + b5 * th^(43./3.) + b6 * th^(110./3))
	 70 Vmol = (1e3 + tot("C") * 105.9907) / (tot("C") * rho) - 1e3 / (tot("C") * rho0 / 1e3)
	 120 graph_y Vmol
	END
-----------------------------------------
Beginning of batch-reaction calculations.
-----------------------------------------

Reaction step 1.

Using solution 1.	
Using temperature 1.	

-----------------------------Solution composition------------------------------

	Elements           Molality       Moles

	C                 1.000e-01   1.000e-01
	Na                2.000e-01   2.000e-01

----------------------------Description of solution----------------------------

                                       pH  =  11.856      Charge balance
                                       pe  =   8.318      Adjusted to redox equilibrium
      Specific Conductance (µS/cm,   5°C)  = 9104
                          Density (g/cm³)  =   1.01152
                               Volume (L)  =   0.99915
                        Viscosity (mPa s)  =   1.61066
                        Activity of water  =   0.995
                 Ionic strength (mol/kgw)  =   2.980e-01
                       Mass of water (kg)  =   1.000e+00
                 Total alkalinity (eq/kg)  =   2.000e-01
                       Total CO2 (mol/kg)  =   1.000e-01
                         Temperature (°C)  =   5.00
                  Electrical balance (eq)  =  -2.657e-11
 Percent error, 100*(Cat-|An|)/(Cat+|An|)  =  -0.00
                               Iterations  =   8
                                  Total H  = 1.110194e+02
                                  Total O  = 5.580969e+01

----------------------------Distribution of species----------------------------

                                               Log       Log       Log    mole V
   Species          Molality    Activity  Molality  Activity     Gamma   cm³/mol

   OH-             1.953e-03   1.332e-03    -2.709    -2.876    -0.166     -4.79
   H+              1.769e-12   1.393e-12   -11.752   -11.856    -0.104      0.00
   H2O             5.551e+01   9.949e-01     1.744    -0.002     0.000     18.02
C(-4)         0.000e+00
   CH4             0.000e+00   0.000e+00  -142.401  -142.371     0.030     33.36
C(4)          1.000e-01
   CO3-2           9.804e-02   2.758e-02    -1.009    -1.559    -0.551     -5.30
   HCO3-           1.880e-03   1.377e-03    -2.726    -2.861    -0.135     23.95
   NaHCO3          7.306e-05   8.103e-05    -4.136    -4.091     0.045     15.48
   CO2             6.046e-09   6.326e-09    -8.219    -8.199     0.020     33.79
   (CO2)2          1.852e-19   1.938e-19   -18.732   -18.713     0.020     66.74
H(0)          0.000e+00
   H2              0.000e+00   0.000e+00   -43.437   -43.406     0.031     13.02
Na            2.000e-01
   Na+             1.999e-01   1.475e-01    -0.699    -0.831    -0.132     -2.17
   NaHCO3          7.306e-05   8.103e-05    -4.136    -4.091     0.045     15.48
O(0)          3.681e-13
   O2              1.840e-13   1.971e-13   -12.735   -12.705     0.030     28.29

------------------------------Saturation indices-------------------------------

  Phase               SI** log IAP   log K(278 K,   1 atm)

  CH4(g)         -139.81   -142.37   -2.56  CH4
  CO2(g)           -7.01     -8.20   -1.19  CO2
  H2(g)           -40.36    -43.41   -3.05  H2
  H2O(g)           -2.06     -0.00    2.06  H2O
  O2(g)            -9.99    -12.71   -2.71  O2

**For a gas, SI = log10(fugacity). Fugacity = pressure * phi / 1 atm.
  For ideal gases, phi = 1.

Reaction step 2.

Using solution 1.	
Using temperature 1.	

-----------------------------Solution composition------------------------------

	Elements           Molality       Moles

	C                 1.000e-01   1.000e-01
	Na                2.000e-01   2.000e-01

----------------------------Description of solution----------------------------

                                       pH  =  11.763      Charge balance
                                       pe  =   7.724      Adjusted to redox equilibrium
      Specific Conductance (µS/cm,   8°C)  = 10112
                          Density (g/cm³)  =   1.01124
                               Volume (L)  =   0.99943
                        Viscosity (mPa s)  =   1.45082
                        Activity of water  =   0.995
                 Ionic strength (mol/kgw)  =   2.977e-01
                       Mass of water (kg)  =   1.000e+00
                 Total alkalinity (eq/kg)  =   2.000e-01
                       Total CO2 (mol/kg)  =   1.000e-01
                         Temperature (°C)  =   8.42
                  Electrical balance (eq)  =  -2.462e-11
 Percent error, 100*(Cat-|An|)/(Cat+|An|)  =  -0.00
                               Iterations  =   7
                                  Total H  = 1.110194e+02
                                  Total O  = 5.580969e+01

----------------------------Distribution of species----------------------------

                                               Log       Log       Log    mole V
   Species          Molality    Activity  Molality  Activity     Gamma   cm³/mol

   OH-             2.164e-03   1.473e-03    -2.665    -2.832    -0.167     -4.42
   H+              2.192e-12   1.725e-12   -11.659   -11.763    -0.104      0.00
   H2O             5.551e+01   9.949e-01     1.744    -0.002     0.000     18.02
C(-4)         0.000e+00
   CH4             0.000e+00   0.000e+00  -137.303  -137.273     0.030     33.80
C(4)          1.000e-01
   CO3-2           9.783e-02   2.738e-02    -1.010    -1.563    -0.553     -4.50
   HCO3-           2.081e-03   1.521e-03    -2.682    -2.818    -0.136     24.52
   NaHCO3          8.350e-05   9.261e-05    -4.078    -4.033     0.045     15.97
   CO2             7.597e-09   7.948e-09    -8.119    -8.100     0.020     33.98
   (CO2)2          3.705e-19   3.877e-19   -18.431   -18.412     0.020     67.12
H(0)          0.000e+00
   H2              0.000e+00   0.000e+00   -42.079   -42.048     0.031     13.45
Na            2.000e-01
   Na+             1.999e-01   1.473e-01    -0.699    -0.832    -0.133     -1.87
   NaHCO3          8.350e-05   9.261e-05    -4.078    -4.033     0.045     15.97
O(0)          1.413e-14
   O2              7.063e-15   7.565e-15   -14.151   -14.121     0.030     28.75

------------------------------Saturation indices-------------------------------

  Phase               SI** log IAP   log K(281 K,   1 atm)

  CH4(g)         -134.66   -137.27   -2.61  CH4
  CO2(g)           -6.85     -8.10   -1.25  CO2
  H2(g)           -38.99    -42.05   -3.06  H2
  H2O(g)           -1.96     -0.00    1.96  H2O
  O2(g)           -11.37    -14.12   -2.75  O2

**For a gas, SI = log10(fugacity). Fugacity = pressure * phi / 1 atm.
  For ideal gases, phi = 1.

Reaction step 3.

Using solution 1.	
Using temperature 1.	

-----------------------------Solution composition------------------------------

	Elements           Molality       Moles

	C                 1.000e-01   1.000e-01
	Na                2.000e-01   2.000e-01

----------------------------Description of solution----------------------------

                                       pH  =  11.674      Charge balance
                                       pe  =   7.451      Adjusted to redox equilibrium
      Specific Conductance (µS/cm,  12°C)  = 11161
                          Density (g/cm³)  =   1.01080
                               Volume (L)  =   0.99986
                        Viscosity (mPa s)  =   1.31464
                        Activity of water  =   0.995
                 Ionic strength (mol/kgw)  =   2.975e-01
                       Mass of water (kg)  =   1.000e+00
                 Total alkalinity (eq/kg)  =   2.000e-01
                       Total CO2 (mol/kg)  =   1.000e-01
                         Temperature (°C)  =  11.84
                  Electrical balance (eq)  =  -2.439e-11
 Percent error, 100*(Cat-|An|)/(Cat+|An|)  =  -0.00
                               Iterations  =   7
                                  Total H  = 1.110194e+02
                                  Total O  = 5.580969e+01

----------------------------Distribution of species----------------------------

                                               Log       Log       Log    mole V
   Species          Molality    Activity  Molality  Activity     Gamma   cm³/mol

   OH-             2.393e-03   1.627e-03    -2.621    -2.789    -0.168     -4.11
   H+              2.693e-12   2.116e-12   -11.570   -11.674    -0.105      0.00
   H2O             5.551e+01   9.949e-01     1.744    -0.002     0.000     18.02
C(-4)         0.000e+00
   CH4             0.000e+00   0.000e+00  -134.807  -134.777     0.030     34.19
C(4)          1.000e-01
   CO3-2           9.760e-02   2.717e-02    -1.011    -1.566    -0.555     -3.83
   HCO3-           2.298e-03   1.678e-03    -2.639    -2.775    -0.137     25.02
   NaHCO3          9.532e-05   1.057e-04    -4.021    -3.976     0.045     16.40
   CO2             9.528e-09   9.968e-09    -8.021    -8.001     0.020     34.16
   (CO2)2          7.294e-19   7.632e-19   -18.137   -18.117     0.020     67.48
H(0)          0.000e+00
   H2              0.000e+00   0.000e+00   -41.373   -41.342     0.031     13.83
Na            2.000e-01
   Na+             1.999e-01   1.471e-01    -0.699    -0.833    -0.133     -1.60
   NaHCO3          9.532e-05   1.057e-04    -4.021    -3.976     0.045     16.40
O(0)          1.010e-14
   O2              5.052e-15   5.410e-15   -14.297   -14.267     0.030     29.16

------------------------------Saturation indices-------------------------------

  Phase               SI** log IAP   log K(284 K,   1 atm)

  CH4(g)         -132.12   -134.78   -2.66  CH4
  CO2(g)           -6.70     -8.00   -1.30  CO2
  H2(g)           -38.27    -41.34   -3.07  H2
  H2O(g)           -1.86     -0.00    1.86  H2O
  O2(g)           -11.48    -14.27   -2.78  O2

**For a gas, SI = log10(fugacity). Fugacity = pressure * phi / 1 atm.
  For ideal gases, phi = 1.

Reaction step 4.

Using solution 1.	
Using temperature 1.	

-----------------------------Solution composition------------------------------

	Elements           Molality       Moles

	C                 1.000e-01   1.000e-01
	Na                2.000e-01   2.000e-01

----------------------------Description of solution----------------------------

                                       pH  =  11.589      Charge balance
                                       pe  =   7.370      Adjusted to redox equilibrium
      Specific Conductance (µS/cm,  15°C)  = 12250
                          Density (g/cm³)  =   1.01023
                               Volume (L)  =   1.00042
                        Viscosity (mPa s)  =   1.19766
                        Activity of water  =   0.995
                 Ionic strength (mol/kgw)  =   2.972e-01
                       Mass of water (kg)  =   1.000e+00
                 Total alkalinity (eq/kg)  =   2.000e-01
                       Total CO2 (mol/kg)  =   1.000e-01
                         Temperature (°C)  =  15.26
                  Electrical balance (eq)  =  -9.562e-10
 Percent error, 100*(Cat-|An|)/(Cat+|An|)  =  -0.00
                               Iterations  =   6
                                  Total H  = 1.110194e+02
                                  Total O  = 5.580969e+01

----------------------------Distribution of species----------------------------

                                               Log       Log       Log    mole V
   Species          Molality    Activity  Molality  Activity     Gamma   cm³/mol

   OH-             2.643e-03   1.793e-03    -2.578    -2.746    -0.169     -3.84
   H+              3.278e-12   2.574e-12   -11.484   -11.589    -0.105      0.00
   H2O             5.551e+01   9.949e-01     1.744    -0.002     0.000     18.03
C(-4)         0.000e+00
   CH4             0.000e+00   0.000e+00  -133.863  -133.833     0.030     34.55
C(4)          1.000e-01
   CO3-2           9.736e-02   2.696e-02    -1.012    -1.569    -0.558     -3.27
   HCO3-           2.534e-03   1.848e-03    -2.596    -2.733    -0.137     25.45
   NaHCO3          1.087e-04   1.205e-04    -3.964    -3.919     0.045     16.78
   CO2             1.193e-08   1.248e-08    -7.923    -7.904     0.020     34.33
   (CO2)2          1.413e-18   1.478e-18   -17.850   -17.830     0.020     67.82
H(0)          0.000e+00
   H2              0.000e+00   0.000e+00   -41.056   -41.025     0.031     14.18
Na            2.000e-01
   Na+             1.999e-01   1.468e-01    -0.699    -0.833    -0.134     -1.36
   NaHCO3          1.087e-04   1.205e-04    -3.964    -3.919     0.045     16.78
O(0)          4.029e-14
   O2              2.014e-14   2.157e-14   -13.696   -13.666     0.030     29.53

------------------------------Saturation indices-------------------------------

  Phase               SI** log IAP   log K(288 K,   1 atm)

  CH4(g)         -131.13   -133.83   -2.70  CH4
  CO2(g)           -6.56     -7.90   -1.34  CO2
  H2(g)           -37.95    -41.02   -3.08  H2
  H2O(g)           -1.76     -0.00    1.76  H2O
  O2(g)           -10.85    -13.67   -2.81  O2

**For a gas, SI = log10(fugacity). Fugacity = pressure * phi / 1 atm.
  For ideal gases, phi = 1.

Reaction step 5.

Using solution 1.	
Using temperature 1.	

-----------------------------Solution composition------------------------------

	Elements           Molality       Moles

	C                 1.000e-01   1.000e-01
	Na                2.000e-01   2.000e-01

----------------------------Description of solution----------------------------

                                       pH  =  11.508      Charge balance
                                       pe  =   7.446      Adjusted to redox equilibrium
      Specific Conductance (µS/cm,  19°C)  = 13375
                          Density (g/cm³)  =   1.00954
                               Volume (L)  =   1.00111
                        Viscosity (mPa s)  =   1.09643
                        Activity of water  =   0.995
                 Ionic strength (mol/kgw)  =   2.970e-01
                       Mass of water (kg)  =   1.000e+00
                 Total alkalinity (eq/kg)  =   2.000e-01
                       Total CO2 (mol/kg)  =   1.000e-01
                         Temperature (°C)  =  18.68
                  Electrical balance (eq)  =  -3.530e-11
 Percent error, 100*(Cat-|An|)/(Cat+|An|)  =  -0.00
                               Iterations  =   6
                                  Total H  = 1.110194e+02
                                  Total O  = 5.580969e+01

----------------------------Distribution of species----------------------------

                                               Log       Log       Log    mole V
   Species          Molality    Activity  Molality  Activity     Gamma   cm³/mol

   OH-             2.913e-03   1.973e-03    -2.536    -2.705    -0.169     -3.62
   H+              3.958e-12   3.104e-12   -11.403   -11.508    -0.106      0.00
   H2O             5.551e+01   9.949e-01     1.744    -0.002     0.000     18.04
C(-4)         0.000e+00
   CH4             0.000e+00   0.000e+00  -134.209  -134.179     0.030     34.89
C(4)          1.000e-01
   CO3-2           9.709e-02   2.673e-02    -1.013    -1.573    -0.560     -2.79
   HCO3-           2.789e-03   2.031e-03    -2.554    -2.692    -0.138     25.83
   NaHCO3          1.237e-04   1.372e-04    -3.907    -3.863     0.045     17.12
   CO2             1.490e-08   1.559e-08    -7.827    -7.807     0.020     34.50
   (CO2)2          2.692e-18   2.817e-18   -17.570   -17.550     0.020     68.16
H(0)          0.000e+00
   H2              0.000e+00   0.000e+00   -41.062   -41.031     0.031     14.49
Na            2.000e-01
   Na+             1.999e-01   1.465e-01    -0.699    -0.834    -0.135     -1.15
   NaHCO3          1.237e-04   1.372e-04    -3.907    -3.863     0.045     17.12
O(0)          6.640e-13
   O2              3.320e-13   3.555e-13   -12.479   -12.449     0.030     29.86

------------------------------Saturation indices-------------------------------

  Phase               SI** log IAP   log K(291 K,   1 atm)

  CH4(g)         -131.44   -134.18   -2.74  CH4
  CO2(g)           -6.42     -7.81   -1.39  CO2
  H2(g)           -37.95    -41.03   -3.09  H2
  H2O(g)           -1.67     -0.00    1.67  H2O
  O2(g)            -9.61    -12.45   -2.84  O2

**For a gas, SI = log10(fugacity). Fugacity = pressure * phi / 1 atm.
  For ideal gases, phi = 1.

Reaction step 6.

Using solution 1.	
Using temperature 1.	

-----------------------------Solution composition------------------------------

	Elements           Molality       Moles

	C                 1.000e-01   1.000e-01
	Na                2.000e-01   2.000e-01

----------------------------Description of solution----------------------------

                                       pH  =  11.430      Charge balance
                                       pe  =   7.133      Adjusted to redox equilibrium
      Specific Conductance (µS/cm,  22°C)  = 14537
                          Density (g/cm³)  =   1.00873
                               Volume (L)  =   1.00191
                        Viscosity (mPa s)  =   1.00822
                        Activity of water  =   0.995
                 Ionic strength (mol/kgw)  =   2.967e-01
                       Mass of water (kg)  =   1.000e+00
                 Total alkalinity (eq/kg)  =   2.000e-01
                       Total CO2 (mol/kg)  =   1.000e-01
                         Temperature (°C)  =  22.11
                  Electrical balance (eq)  =  -2.434e-11
 Percent error, 100*(Cat-|An|)/(Cat+|An|)  =  -0.00
                               Iterations  =   5
                                  Total H  = 1.110194e+02
                                  Total O  = 5.580969e+01

----------------------------Distribution of species----------------------------

                                               Log       Log       Log    mole V
   Species          Molality    Activity  Molality  Activity     Gamma   cm³/mol

   OH-             3.206e-03   2.167e-03    -2.494    -2.664    -0.170     -3.43
   H+              4.741e-12   3.714e-12   -11.324   -11.430    -0.106      0.00
   H2O             5.551e+01   9.948e-01     1.744    -0.002     0.000     18.06
C(-4)         0.000e+00
   CH4             0.000e+00   0.000e+00  -131.459  -131.429     0.030     35.20
C(4)          1.000e-01
   CO3-2           9.679e-02   2.649e-02    -1.014    -1.577    -0.563     -2.39
   HCO3-           3.065e-03   2.229e-03    -2.514    -2.652    -0.138     26.16
   NaHCO3          1.407e-04   1.560e-04    -3.852    -3.807     0.045     17.43
   CO2             1.858e-08   1.944e-08    -7.731    -7.711     0.020     34.66
   (CO2)2          5.051e-18   5.284e-18   -17.297   -17.277     0.020     68.48
H(0)          0.000e+00
   H2              0.000e+00   0.000e+00   -40.296   -40.264     0.031     14.77
Na            2.000e-01
   Na+             1.999e-01   1.463e-01    -0.699    -0.835    -0.136     -0.96
   NaHCO3          1.407e-04   1.560e-04    -3.852    -3.807     0.045     17.43
O(0)          2.903e-13
   O2              1.452e-13   1.554e-13   -12.838   -12.808     0.030     30.17

------------------------------Saturation indices-------------------------------

  Phase               SI** log IAP   log K(295 K,   1 atm)

  CH4(g)         -128.66   -131.43   -2.77  CH4
  CO2(g)           -6.28     -7.71   -1.43  CO2
  H2(g)           -37.17    -40.26   -3.09  H2
  H2O(g)           -1.58     -0.00    1.58  H2O
  O2(g)            -9.94    -12.81   -2.87  O2

**For a gas, SI = log10(fugacity). Fugacity = pressure * phi / 1 atm.
  For ideal gases, phi = 1.

Reaction step 7.

Using solution 1.	
Using temperature 1.	

-----------------------------Solution composition------------------------------

	Elements           Molality       Moles

	C                 1.000e-01   1.000e-01
	Na                2.000e-01   2.000e-01

----------------------------Description of solution----------------------------

                                       pH  =  11.356      Charge balance
                                       pe  =   6.550      Adjusted to redox equilibrium
      Specific Conductance (µS/cm,  26°C)  = 15732
                          Density (g/cm³)  =   1.00781
                               Volume (L)  =   1.00283
                        Viscosity (mPa s)  =   0.93088
                        Activity of water  =   0.995
                 Ionic strength (mol/kgw)  =   2.963e-01
                       Mass of water (kg)  =   1.000e+00
                 Total alkalinity (eq/kg)  =   2.000e-01
                       Total CO2 (mol/kg)  =   1.000e-01
                         Temperature (°C)  =  25.53
                  Electrical balance (eq)  =  -5.002e-10
 Percent error, 100*(Cat-|An|)/(Cat+|An|)  =  -0.00
                               Iterations  =   4
                                  Total H  = 1.110194e+02
                                  Total O  = 5.580969e+01

----------------------------Distribution of species----------------------------

                                               Log       Log       Log    mole V
   Species          Molality    Activity  Molality  Activity     Gamma   cm³/mol

   OH-             3.523e-03   2.377e-03    -2.453    -2.624    -0.171     -3.28
   H+              5.635e-12   4.410e-12   -11.249   -11.356    -0.106      0.00
   H2O             5.551e+01   9.948e-01     1.744    -0.002     0.000     18.07
C(-4)         0.000e+00
   CH4             0.000e+00   0.000e+00  -126.568  -126.539     0.030     35.50
C(4)          1.000e-01
   CO3-2           9.648e-02   2.624e-02    -1.016    -1.581    -0.565     -2.06
   HCO3-           3.363e-03   2.442e-03    -2.473    -2.612    -0.139     26.46
   NaHCO3          1.599e-04   1.772e-04    -3.796    -3.751     0.045     17.70
   CO2             2.311e-08   2.418e-08    -7.636    -7.617     0.020     34.82
   (CO2)2          9.328e-18   9.757e-18   -17.030   -17.011     0.020     68.80
H(0)          2.024e-39
   H2              1.012e-39   1.087e-39   -38.995   -38.964     0.031     15.03
Na            2.000e-01
   Na+             1.998e-01   1.460e-01    -0.699    -0.836    -0.136     -0.79
   NaHCO3          1.599e-04   1.772e-04    -3.796    -3.751     0.045     17.70
O(0)          1.014e-14
   O2              5.068e-15   5.425e-15   -14.295   -14.266     0.030     30.44

------------------------------Saturation indices-------------------------------

  Phase               SI** log IAP   log K(298 K,   1 atm)

  CH4(g)         -123.73   -126.54   -2.81  CH4
  CO2(g)           -6.14     -7.62   -1.47  CO2
  H2(g)           -35.86    -38.96   -3.10  H2
  H2O(g)           -1.49     -0.00    1.49  H2O
  O2(g)           -11.37    -14.27   -2.90  O2

**For a gas, SI = log10(fugacity). Fugacity = pressure * phi / 1 atm.
  For ideal gases, phi = 1.

Reaction step 8.

Using solution 1.	
Using temperature 1.	

-----------------------------Solution composition------------------------------

	Elements           Molality       Moles

	C                 1.000e-01   1.000e-01
	Na                2.000e-01   2.000e-01

----------------------------Description of solution----------------------------

                                       pH  =  11.284      Charge balance
                                       pe  =   6.401      Adjusted to redox equilibrium
      Specific Conductance (µS/cm,  29°C)  = 16960
                          Density (g/cm³)  =   1.00679
                               Volume (L)  =   1.00384
                        Viscosity (mPa s)  =   0.86266
                        Activity of water  =   0.995
                 Ionic strength (mol/kgw)  =   2.960e-01
                       Mass of water (kg)  =   1.000e+00
                 Total alkalinity (eq/kg)  =   2.000e-01
                       Total CO2 (mol/kg)  =   1.000e-01
                         Temperature (°C)  =  28.95
                  Electrical balance (eq)  =  -2.880e-11
 Percent error, 100*(Cat-|An|)/(Cat+|An|)  =  -0.00
                               Iterations  =   5
                                  Total H  = 1.110194e+02
                                  Total O  = 5.580969e+01

----------------------------Distribution of species----------------------------

                                               Log       Log       Log    mole V
   Species          Molality    Activity  Molality  Activity     Gamma   cm³/mol

   OH-             3.865e-03   2.603e-03    -2.413    -2.585    -0.172     -3.15
   H+              6.649e-12   5.197e-12   -11.177   -11.284    -0.107      0.00
   H2O             5.551e+01   9.948e-01     1.744    -0.002     0.000     18.09
C(-4)         0.000e+00
   CH4             0.000e+00   0.000e+00  -125.170  -125.140     0.030     35.78
C(4)          1.000e-01
   CO3-2           9.614e-02   2.598e-02    -1.017    -1.585    -0.568     -1.79
   HCO3-           3.684e-03   2.670e-03    -2.434    -2.573    -0.140     26.71
   NaHCO3          1.814e-04   2.011e-04    -3.741    -3.697     0.045     17.95
   CO2             2.869e-08   3.000e-08    -7.542    -7.523     0.020     34.98
   (CO2)2          1.696e-17   1.774e-17   -16.771   -16.751     0.020     69.12
H(0)          5.411e-39
   H2              2.705e-39   2.906e-39   -38.568   -38.537     0.031     15.27
Na            2.000e-01
   Na+             1.998e-01   1.457e-01    -0.699    -0.837    -0.137     -0.64
   NaHCO3          1.814e-04   2.011e-04    -3.741    -3.697     0.045     17.95
O(0)          1.853e-14
   O2              9.266e-15   9.919e-15   -14.033   -14.004     0.030     30.70

------------------------------Saturation indices-------------------------------

  Phase               SI** log IAP   log K(302 K,   1 atm)

  CH4(g)         -122.30   -125.14   -2.84  CH4
  CO2(g)           -6.01     -7.52   -1.51  CO2
  H2(g)           -35.43    -38.54   -3.11  H2
  H2O(g)           -1.41     -0.00    1.40  H2O
  O2(g)           -11.08    -14.00   -2.92  O2

**For a gas, SI = log10(fugacity). Fugacity = pressure * phi / 1 atm.
  For ideal gases, phi = 1.

Reaction step 9.

Using solution 1.	
Using temperature 1.	

-----------------------------Solution composition------------------------------

	Elements           Molality       Moles

	C                 1.000e-01   1.000e-01
	Na                2.000e-01   2.000e-01

----------------------------Description of solution----------------------------

                                       pH  =  11.216      Charge balance
                                       pe  =   6.426      Adjusted to redox equilibrium
      Specific Conductance (µS/cm,  32°C)  = 18218
                          Density (g/cm³)  =   1.00568
                               Volume (L)  =   1.00496
                        Viscosity (mPa s)  =   0.80217
                        Activity of water  =   0.995
                 Ionic strength (mol/kgw)  =   2.956e-01
                       Mass of water (kg)  =   1.000e+00
                 Total alkalinity (eq/kg)  =   2.000e-01
                       Total CO2 (mol/kg)  =   1.000e-01
                         Temperature (°C)  =  32.37
                  Electrical balance (eq)  =  -3.406e-10
 Percent error, 100*(Cat-|An|)/(Cat+|An|)  =  -0.00
                               Iterations  =   5
                                  Total H  = 1.110194e+02
                                  Total O  = 5.580969e+01

----------------------------Distribution of species----------------------------

                                               Log       Log       Log    mole V
   Species          Molality    Activity  Molality  Activity     Gamma   cm³/mol

   OH-             4.234e-03   2.845e-03    -2.373    -2.546    -0.173     -3.05
   H+              7.791e-12   6.083e-12   -11.108   -11.216    -0.108      0.00
   H2O             5.551e+01   9.948e-01     1.744    -0.002     0.000     18.11
C(-4)         0.000e+00
   CH4             0.000e+00   0.000e+00  -125.185  -125.155     0.030     36.05
C(4)          1.000e-01
   CO3-2           9.577e-02   2.572e-02    -1.019    -1.590    -0.571     -1.57
   HCO3-           4.028e-03   2.915e-03    -2.395    -2.535    -0.140     26.94
   NaHCO3          2.056e-04   2.278e-04    -3.687    -3.642     0.045     18.18
   CO2             3.552e-08   3.715e-08    -7.450    -7.430     0.020     35.13
   (CO2)2          3.038e-17   3.178e-17   -16.517   -16.498     0.020     69.43
H(0)          6.396e-39
   H2              3.198e-39   3.435e-39   -38.495   -38.464     0.031     15.49
Na            2.000e-01
   Na+             1.998e-01   1.454e-01    -0.699    -0.837    -0.138     -0.50
   NaHCO3          2.056e-04   2.278e-04    -3.687    -3.642     0.045     18.18
O(0)          1.624e-13
   O2              8.121e-14   8.693e-14   -13.090   -13.061     0.030     30.93

------------------------------Saturation indices-------------------------------

  Phase               SI** log IAP   log K(305 K,   1 atm)

  CH4(g)         -122.29   -125.15   -2.86  CH4
  CO2(g)           -5.88     -7.43   -1.55  CO2
  H2(g)           -35.35    -38.46   -3.11  H2
  H2O(g)           -1.32     -0.00    1.32  H2O
  O2(g)           -10.12    -13.06   -2.94  O2

**For a gas, SI = log10(fugacity). Fugacity = pressure * phi / 1 atm.
  For ideal gases, phi = 1.

Reaction step 10.

Using solution 1.	
Using temperature 1.	

-----------------------------Solution composition------------------------------

	Elements           Molality       Moles

	C                 1.000e-01   1.000e-01
	Na                2.000e-01   2.000e-01

----------------------------Description of solution----------------------------

                                       pH  =  11.150      Charge balance
                                       pe  =   6.433      Adjusted to redox equilibrium
      Specific Conductance (µS/cm,  36°C)  = 19507
                          Density (g/cm³)  =   1.00447
                               Volume (L)  =   1.00617
                        Viscosity (mPa s)  =   0.74826
                        Activity of water  =   0.995
                 Ionic strength (mol/kgw)  =   2.951e-01
                       Mass of water (kg)  =   1.000e+00
                 Total alkalinity (eq/kg)  =   2.000e-01
                       Total CO2 (mol/kg)  =   1.000e-01
                         Temperature (°C)  =  35.79
                  Electrical balance (eq)  =  -7.007e-10
 Percent error, 100*(Cat-|An|)/(Cat+|An|)  =  -0.00
                               Iterations  =   5
                                  Total H  = 1.110194e+02
                                  Total O  = 5.580969e+01

----------------------------Distribution of species----------------------------

                                               Log       Log       Log    mole V
   Species          Molality    Activity  Molality  Activity     Gamma   cm³/mol

   OH-             4.631e-03   3.106e-03    -2.334    -2.508    -0.174     -2.98
   H+              9.069e-12   7.071e-12   -11.042   -11.150    -0.108      0.00
   H2O             5.551e+01   9.948e-01     1.744    -0.002     0.000     18.13
C(-4)         0.000e+00
   CH4             0.000e+00   0.000e+00  -125.078  -125.049     0.030     36.31
C(4)          1.000e-01
   CO3-2           9.537e-02   2.544e-02    -1.021    -1.594    -0.574     -1.40
   HCO3-           4.398e-03   3.178e-03    -2.357    -2.498    -0.141     27.13
   NaHCO3          2.327e-04   2.579e-04    -3.633    -3.589     0.045     18.38
   CO2             4.387e-08   4.589e-08    -7.358    -7.338     0.019     35.29
   (CO2)2          5.361e-17   5.607e-17   -16.271   -16.251     0.019     69.75
H(0)          8.090e-39
   H2              4.045e-39   4.344e-39   -38.393   -38.362     0.031     15.69
Na            2.000e-01
   Na+             1.998e-01   1.451e-01    -0.699    -0.838    -0.139     -0.37
   NaHCO3          2.327e-04   2.579e-04    -3.633    -3.589     0.045     18.38
O(0)          1.167e-12
   O2              5.837e-13   6.247e-13   -12.234   -12.204     0.030     31.15

------------------------------Saturation indices-------------------------------

  Phase               SI** log IAP   log K(308 K,   1 atm)

  CH4(g)         -122.16   -125.05   -2.89  CH4
  CO2(g)           -5.75     -7.34   -1.58  CO2
  H2(g)           -35.25    -38.36   -3.12  H2
  H2O(g)           -1.24     -0.00    1.24  H2O
  O2(g)            -9.24    -12.20   -2.96  O2

**For a gas, SI = log10(fugacity). Fugacity = pressure * phi / 1 atm.
  For ideal gases, phi = 1.

Reaction step 11.

Using solution 1.	
Using temperature 1.	

-----------------------------Solution composition------------------------------

	Elements           Molality       Moles

	C                 1.000e-01   1.000e-01
	Na                2.000e-01   2.000e-01

----------------------------Description of solution----------------------------

                                       pH  =  11.088      Charge balance
                                       pe  =   5.716      Adjusted to redox equilibrium
      Specific Conductance (µS/cm,  39°C)  = 20823
                          Density (g/cm³)  =   1.00317
                               Volume (L)  =   1.00747
                        Viscosity (mPa s)  =   0.70001
                        Activity of water  =   0.995
                 Ionic strength (mol/kgw)  =   2.947e-01
                       Mass of water (kg)  =   1.000e+00
                 Total alkalinity (eq/kg)  =   2.000e-01
                       Total CO2 (mol/kg)  =   1.000e-01
                         Temperature (°C)  =  39.21
                  Electrical balance (eq)  =  -2.450e-11
 Percent error, 100*(Cat-|An|)/(Cat+|An|)  =  -0.00
                               Iterations  =   5
                                  Total H  = 1.110194e+02
                                  Total O  = 5.580969e+01

----------------------------Distribution of species----------------------------

                                               Log       Log       Log    mole V
   Species          Molality    Activity  Molality  Activity     Gamma   cm³/mol

   OH-             5.059e-03   3.385e-03    -2.296    -2.470    -0.174     -2.92
   H+              1.049e-11   8.168e-12   -10.979   -11.088    -0.109      0.00
   H2O             5.551e+01   9.948e-01     1.744    -0.002     0.000     18.15
C(-4)         0.000e+00
   CH4             0.000e+00   0.000e+00  -119.192  -119.162     0.029     36.56
C(4)          1.000e-01
   CO3-2           9.494e-02   2.515e-02    -1.023    -1.599    -0.577     -1.28
   HCO3-           4.795e-03   3.459e-03    -2.319    -2.461    -0.142     27.30
   NaHCO3          2.632e-04   2.915e-04    -3.580    -3.535     0.044     18.57
   CO2             5.406e-08   5.654e-08    -7.267    -7.248     0.019     35.45
   (CO2)2          9.322e-17   9.748e-17   -16.031   -16.011     0.019     70.07
H(0)          2.845e-37
   H2              1.423e-37   1.528e-37   -36.847   -36.816     0.031     15.88
Na            2.000e-01
   Na+             1.997e-01   1.448e-01    -0.700    -0.839    -0.140     -0.25
   NaHCO3          2.632e-04   2.915e-04    -3.580    -3.535     0.044     18.57
O(0)          1.020e-14
   O2              5.102e-15   5.460e-15   -14.292   -14.263     0.029     31.35

------------------------------Saturation indices-------------------------------

  Phase               SI** log IAP   log K(312 K,   1 atm)

  CH4(g)         -116.25   -119.16   -2.91  CH4
  CO2(g)           -5.63     -7.25   -1.62  CO2
  H2(g)           -33.70    -36.82   -3.12  H2
  H2O(g)           -1.16     -0.00    1.16  H2O
  O2(g)           -11.28    -14.26   -2.98  O2

**For a gas, SI = log10(fugacity). Fugacity = pressure * phi / 1 atm.
  For ideal gases, phi = 1.

Reaction step 12.

Using solution 1.	
Using temperature 1.	

-----------------------------Solution composition------------------------------

	Elements           Molality       Moles

	C                 1.000e-01   1.000e-01
	Na                2.000e-01   2.000e-01

----------------------------Description of solution----------------------------

                                       pH  =  11.028      Charge balance
                                       pe  =   5.516      Adjusted to redox equilibrium
      Specific Conductance (µS/cm,  43°C)  = 22167
                          Density (g/cm³)  =   1.00179
                               Volume (L)  =   1.00885
                        Viscosity (mPa s)  =   0.65663
                        Activity of water  =   0.995
                 Ionic strength (mol/kgw)  =   2.942e-01
                       Mass of water (kg)  =   1.000e+00
                 Total alkalinity (eq/kg)  =   2.000e-01
                       Total CO2 (mol/kg)  =   1.000e-01
                         Temperature (°C)  =  42.63
                  Electrical balance (eq)  =  -2.667e-11
 Percent error, 100*(Cat-|An|)/(Cat+|An|)  =  -0.00
                               Iterations  =   5
                                  Total H  = 1.110194e+02
                                  Total O  = 5.580969e+01

----------------------------Distribution of species----------------------------

                                               Log       Log       Log    mole V
   Species          Molality    Activity  Molality  Activity     Gamma   cm³/mol

   OH-             5.517e-03   3.684e-03    -2.258    -2.434    -0.175     -2.89
   H+              1.206e-11   9.377e-12   -10.919   -11.028    -0.109      0.00
   H2O             5.551e+01   9.948e-01     1.744    -0.002     0.000     18.18
C(-4)         0.000e+00
   CH4             0.000e+00   0.000e+00  -117.460  -117.431     0.029     36.81
C(4)          1.000e-01
   CO3-2           9.449e-02   2.485e-02    -1.025    -1.605    -0.580     -1.19
   HCO3-           5.220e-03   3.758e-03    -2.282    -2.425    -0.143     27.45
   NaHCO3          2.972e-04   3.292e-04    -3.527    -3.483     0.044     18.75
   CO2             6.645e-08   6.949e-08    -7.177    -7.158     0.019     35.62
   (CO2)2          1.598e-16   1.671e-16   -15.797   -15.777     0.019     70.39
H(0)          9.134e-37
   H2              4.567e-37   4.904e-37   -36.340   -36.309     0.031     16.06
Na            2.000e-01
   Na+             1.997e-01   1.444e-01    -0.700    -0.840    -0.141     -0.14
   NaHCO3          2.972e-04   3.292e-04    -3.527    -3.483     0.044     18.75
O(0)          1.008e-14
   O2              5.041e-15   5.394e-15   -14.297   -14.268     0.029     31.55

------------------------------Saturation indices-------------------------------

  Phase               SI** log IAP   log K(315 K,   1 atm)

  CH4(g)         -114.50   -117.43   -2.93  CH4
  CO2(g)           -5.51     -7.16   -1.65  CO2
  H2(g)           -33.19    -36.31   -3.12  H2
  H2O(g)           -1.08     -0.00    1.08  H2O
  O2(g)           -11.27    -14.27   -3.00  O2

**For a gas, SI = log10(fugacity). Fugacity = pressure * phi / 1 atm.
  For ideal gases, phi = 1.

Reaction step 13.

Using solution 1.	
Using temperature 1.	

-----------------------------Solution composition------------------------------

	Elements           Molality       Moles

	C                 1.000e-01   1.000e-01
	Na                2.000e-01   2.000e-01

----------------------------Description of solution----------------------------

                                       pH  =  10.971      Charge balance
                                       pe  =   5.347      Adjusted to redox equilibrium
      Specific Conductance (µS/cm,  46°C)  = 23535
                          Density (g/cm³)  =   1.00033
                               Volume (L)  =   1.01033
                        Viscosity (mPa s)  =   0.61749
                        Activity of water  =   0.995
                 Ionic strength (mol/kgw)  =   2.937e-01
                       Mass of water (kg)  =   1.000e+00
                 Total alkalinity (eq/kg)  =   2.000e-01
                       Total CO2 (mol/kg)  =   1.000e-01
                         Temperature (°C)  =  46.05
                  Electrical balance (eq)  =  -5.237e-11
 Percent error, 100*(Cat-|An|)/(Cat+|An|)  =  -0.00
                               Iterations  =   5
                                  Total H  = 1.110194e+02
                                  Total O  = 5.580969e+01

----------------------------Distribution of species----------------------------

                                               Log       Log       Log    mole V
   Species          Molality    Activity  Molality  Activity     Gamma   cm³/mol

   OH-             6.009e-03   4.004e-03    -2.221    -2.398    -0.176     -2.87
   H+              1.378e-11   1.070e-11   -10.861   -10.971    -0.110      0.00
   H2O             5.551e+01   9.948e-01     1.744    -0.002     0.000     18.20
C(-4)         0.000e+00
   CH4             0.000e+00   0.000e+00  -115.993  -115.964     0.029     37.05
C(4)          1.000e-01
   CO3-2           9.400e-02   2.455e-02    -1.027    -1.610    -0.583     -1.15
   HCO3-           5.674e-03   4.078e-03    -2.246    -2.390    -0.143     27.57
   NaHCO3          3.353e-04   3.714e-04    -3.475    -3.430     0.044     18.91
   CO2             8.148e-08   8.519e-08    -7.089    -7.070     0.019     35.78
   (CO2)2          2.699e-16   2.822e-16   -15.569   -15.549     0.019     70.72
H(0)          2.513e-36
   H2              1.257e-36   1.349e-36   -35.901   -35.870     0.031     16.24
Na            2.000e-01
   Na+             1.997e-01   1.441e-01    -0.700    -0.841    -0.142     -0.04
   NaHCO3          3.353e-04   3.714e-04    -3.475    -3.430     0.044     18.91
O(0)          1.279e-14
   O2              6.393e-15   6.840e-15   -14.194   -14.165     0.029     31.73

------------------------------Saturation indices-------------------------------

  Phase               SI** log IAP   log K(319 K,   1 atm)

  CH4(g)         -113.02   -115.96   -2.94  CH4
  CO2(g)           -5.39     -7.07   -1.68  CO2
  H2(g)           -32.74    -35.87   -3.13  H2
  H2O(g)           -1.00     -0.00    1.00  H2O
  O2(g)           -11.15    -14.16   -3.01  O2

**For a gas, SI = log10(fugacity). Fugacity = pressure * phi / 1 atm.
  For ideal gases, phi = 1.

Reaction step 14.

Using solution 1.	
Using temperature 1.	

-----------------------------Solution composition------------------------------

	Elements           Molality       Moles

	C                 1.000e-01   1.000e-01
	Na                2.000e-01   2.000e-01

----------------------------Description of solution----------------------------

                                       pH  =  10.916      Charge balance
                                       pe  =   5.321      Adjusted to redox equilibrium
      Specific Conductance (µS/cm,  49°C)  = 24927
                          Density (g/cm³)  =   0.99880
                               Volume (L)  =   1.01188
                        Viscosity (mPa s)  =   0.58204
                        Activity of water  =   0.995
                 Ionic strength (mol/kgw)  =   2.931e-01
                       Mass of water (kg)  =   9.999e-01
                 Total alkalinity (eq/kg)  =   2.000e-01
                       Total CO2 (mol/kg)  =   1.000e-01
                         Temperature (°C)  =  49.47
                  Electrical balance (eq)  =  -2.198e-10
 Percent error, 100*(Cat-|An|)/(Cat+|An|)  =  -0.00
                               Iterations  =   5
                                  Total H  = 1.110194e+02
                                  Total O  = 5.580969e+01

----------------------------Distribution of species----------------------------

                                               Log       Log       Log    mole V
   Species          Molality    Activity  Molality  Activity     Gamma   cm³/mol

   OH-             6.536e-03   4.345e-03    -2.185    -2.362    -0.177     -2.87
   H+              1.566e-11   1.214e-11   -10.805   -10.916    -0.110      0.00
   H2O             5.551e+01   9.948e-01     1.744    -0.002     0.000     18.23
C(-4)         0.000e+00
   CH4             0.000e+00   0.000e+00  -115.685  -115.655     0.029     37.29
C(4)          1.000e-01
   CO3-2           9.347e-02   2.423e-02    -1.029    -1.616    -0.586     -1.14
   HCO3-           6.158e-03   4.417e-03    -2.211    -2.355    -0.144     27.67
   NaHCO3          3.779e-04   4.184e-04    -3.423    -3.378     0.044     19.06
   CO2             9.964e-08   1.042e-07    -7.002    -6.982     0.019     35.95
   (CO2)2          4.497e-16   4.702e-16   -15.347   -15.328     0.019     71.06
H(0)          3.543e-36
   H2              1.771e-36   1.901e-36   -35.752   -35.721     0.031     16.40
Na            2.000e-01
   Na+             1.996e-01   1.437e-01    -0.700    -0.842    -0.143      0.05
   NaHCO3          3.779e-04   4.184e-04    -3.423    -3.378     0.044     19.06
O(0)          5.836e-14
   O2              2.918e-14   3.122e-14   -13.535   -13.506     0.029     31.90

------------------------------Saturation indices-------------------------------

  Phase               SI** log IAP   log K(322 K,   1 atm)

  CH4(g)         -112.70   -115.66   -2.96  CH4
  CO2(g)           -5.28     -6.98   -1.71  CO2
  H2(g)           -32.59    -35.72   -3.13  H2
  H2O(g)           -0.93     -0.00    0.93  H2O
  O2(g)           -10.48    -13.51   -3.03  O2

**For a gas, SI = log10(fugacity). Fugacity = pressure * phi / 1 atm.
  For ideal gases, phi = 1.

Reaction step 15.

Using solution 1.	
Using temperature 1.	

-----------------------------Solution composition------------------------------

	Elements           Molality       Moles

	C                 1.000e-01   1.000e-01
	Na                2.000e-01   2.000e-01

----------------------------Description of solution----------------------------

                                       pH  =  10.863      Charge balance
                                       pe  =   5.301      Adjusted to redox equilibrium
      Specific Conductance (µS/cm,  53°C)  = 26342
                          Density (g/cm³)  =   0.99719
                               Volume (L)  =   1.01351
                        Viscosity (mPa s)  =   0.54983
                        Activity of water  =   0.995
                 Ionic strength (mol/kgw)  =   2.925e-01
                       Mass of water (kg)  =   9.999e-01
                 Total alkalinity (eq/kg)  =   2.000e-01
                       Total CO2 (mol/kg)  =   1.000e-01
                         Temperature (°C)  =  52.89
                  Electrical balance (eq)  =  -2.120e-10
 Percent error, 100*(Cat-|An|)/(Cat+|An|)  =  -0.00
                               Iterations  =   5
                                  Total H  = 1.110194e+02
                                  Total O  = 5.580969e+01

----------------------------Distribution of species----------------------------

                                               Log       Log       Log    mole V
   Species          Molality    Activity  Molality  Activity     Gamma   cm³/mol

   OH-             7.100e-03   4.709e-03    -2.149    -2.327    -0.178     -2.89
   H+              1.770e-11   1.371e-11   -10.752   -10.863    -0.111      0.00
   H2O             5.551e+01   9.948e-01     1.744    -0.002     0.000     18.26
C(-4)         0.000e+00
   CH4             0.000e+00   0.000e+00  -115.443  -115.414     0.029     37.53
C(4)          1.000e-01
   CO3-2           9.291e-02   2.390e-02    -1.032    -1.622    -0.590     -1.17
   HCO3-           6.674e-03   4.778e-03    -2.176    -2.321    -0.145     27.75
   NaHCO3          4.253e-04   4.709e-04    -3.371    -3.327     0.044     19.20
   CO2             1.215e-07   1.271e-07    -6.915    -6.896     0.019     36.12
   (CO2)2          7.391e-16   7.727e-16   -15.131   -15.112     0.019     71.40
H(0)          4.797e-36
   H2              2.399e-36   2.574e-36   -35.620   -35.589     0.031     16.55
Na            2.000e-01
   Na+             1.996e-01   1.434e-01    -0.700    -0.843    -0.144      0.14
   NaHCO3          4.253e-04   4.709e-04    -3.371    -3.327     0.044     19.20
O(0)          2.728e-13
   O2              1.364e-13   1.459e-13   -12.865   -12.836     0.029     32.06

------------------------------Saturation indices-------------------------------

  Phase               SI** log IAP   log K(326 K,   1 atm)

  CH4(g)         -112.44   -115.41   -2.97  CH4
  CO2(g)           -5.16     -6.90   -1.73  CO2
  H2(g)           -32.46    -35.59   -3.13  H2
  H2O(g)           -0.86     -0.00    0.85  H2O
  O2(g)            -9.79    -12.84   -3.04  O2

**For a gas, SI = log10(fugacity). Fugacity = pressure * phi / 1 atm.
  For ideal gases, phi = 1.

Reaction step 16.

Using solution 1.	
Using temperature 1.	

-----------------------------Solution composition------------------------------

	Elements           Molality       Moles

	C                 1.000e-01   1.000e-01
	Na                2.000e-01   2.000e-01

----------------------------Description of solution----------------------------

                                       pH  =  10.813      Charge balance
                                       pe  =   4.802      Adjusted to redox equilibrium
      Specific Conductance (µS/cm,  56°C)  = 27778
                          Density (g/cm³)  =   0.99551
                               Volume (L)  =   1.01522
                        Viscosity (mPa s)  =   0.52046
                        Activity of water  =   0.995
                 Ionic strength (mol/kgw)  =   2.918e-01
                       Mass of water (kg)  =   9.999e-01
                 Total alkalinity (eq/kg)  =   2.000e-01
                       Total CO2 (mol/kg)  =   1.000e-01
                         Temperature (°C)  =  56.32
                  Electrical balance (eq)  =  -2.439e-11
 Percent error, 100*(Cat-|An|)/(Cat+|An|)  =  -0.00
                               Iterations  =   5
                                  Total H  = 1.110194e+02
                                  Total O  = 5.580969e+01

----------------------------Distribution of species----------------------------

                                               Log       Log       Log    mole V
   Species          Molality    Activity  Molality  Activity     Gamma   cm³/mol

   OH-             7.701e-03   5.095e-03    -2.113    -2.293    -0.179     -2.92
   H+              1.990e-11   1.539e-11   -10.701   -10.813    -0.112      0.00
   H2O             5.551e+01   9.948e-01     1.744    -0.002     0.000     18.29
C(-4)         0.000e+00
   CH4             0.000e+00   0.000e+00  -111.375  -111.346     0.029     37.77
C(4)          1.000e-01
   CO3-2           9.231e-02   2.356e-02    -1.035    -1.628    -0.593     -1.23
   HCO3-           7.223e-03   5.161e-03    -2.141    -2.287    -0.146     27.82
   NaHCO3          4.782e-04   5.293e-04    -3.320    -3.276     0.044     19.32
   CO2             1.479e-07   1.546e-07    -6.830    -6.811     0.019     36.30
   (CO2)2          1.198e-15   1.253e-15   -14.921   -14.902     0.019     71.75
H(0)          5.868e-35
   H2              2.934e-35   3.148e-35   -34.533   -34.502     0.031     16.70
Na            2.000e-01
   Na+             1.995e-01   1.430e-01    -0.700    -0.845    -0.145      0.22
   NaHCO3          4.782e-04   5.293e-04    -3.320    -3.276     0.044     19.32
O(0)          1.480e-14
   O2              7.400e-15   7.915e-15   -14.131   -14.102     0.029     32.22

------------------------------Saturation indices-------------------------------

  Phase               SI** log IAP   log K(329 K,   1 atm)

  CH4(g)         -108.36   -111.35   -2.98  CH4
  CO2(g)           -5.05     -6.81   -1.76  CO2
  H2(g)           -31.37    -34.50   -3.13  H2
  H2O(g)           -0.79     -0.00    0.78  H2O
  O2(g)           -11.05    -14.10   -3.05  O2

**For a gas, SI = log10(fugacity). Fugacity = pressure * phi / 1 atm.
  For ideal gases, phi = 1.

Reaction step 17.

Using solution 1.	
Using temperature 1.	

-----------------------------Solution composition------------------------------

	Elements           Molality       Moles

	C                 1.000e-01   1.000e-01
	Na                2.000e-01   2.000e-01

----------------------------Description of solution----------------------------

                                       pH  =  10.765      Charge balance
                                       pe  =   4.581      Adjusted to redox equilibrium
      Specific Conductance (µS/cm,  60°C)  = 29233
                          Density (g/cm³)  =   0.99376
                               Volume (L)  =   1.01701
                        Viscosity (mPa s)  =   0.49361
                        Activity of water  =   0.995
                 Ionic strength (mol/kgw)  =   2.911e-01
                       Mass of water (kg)  =   9.999e-01
                 Total alkalinity (eq/kg)  =   2.000e-01
                       Total CO2 (mol/kg)  =   1.000e-01
                         Temperature (°C)  =  59.74
                  Electrical balance (eq)  =  -2.447e-11
 Percent error, 100*(Cat-|An|)/(Cat+|An|)  =  -0.00
                               Iterations  =   5
                                  Total H  = 1.110194e+02
                                  Total O  = 5.580969e+01

----------------------------Distribution of species----------------------------

                                               Log       Log       Log    mole V
   Species          Molality    Activity  Molality  Activity     Gamma   cm³/mol

   OH-             8.343e-03   5.507e-03    -2.079    -2.259    -0.180     -2.96
   H+              2.226e-11   1.719e-11   -10.652   -10.765    -0.112      0.00
   H2O             5.551e+01   9.948e-01     1.744    -0.002     0.000     18.32
C(-4)         0.000e+00
   CH4             0.000e+00   0.000e+00  -109.552  -109.522     0.029     38.00
C(4)          1.000e-01
   CO3-2           9.167e-02   2.322e-02    -1.038    -1.634    -0.596     -1.32
   HCO3-           7.806e-03   5.566e-03    -2.108    -2.254    -0.147     27.86
   NaHCO3          5.371e-04   5.943e-04    -3.270    -3.226     0.044     19.44
   CO2             1.795e-07   1.876e-07    -6.746    -6.727     0.019     36.48
   (CO2)2          1.918e-15   2.004e-15   -14.717   -14.698     0.019     72.11
H(0)          1.967e-34
   H2              9.837e-35   1.055e-34   -34.007   -33.977     0.031     16.84
Na            2.000e-01
   Na+             1.995e-01   1.426e-01    -0.700    -0.846    -0.146      0.30
   NaHCO3          5.371e-04   5.943e-04    -3.270    -3.226     0.044     19.44
O(0)          1.013e-14
   O2              5.063e-15   5.414e-15   -14.296   -14.266     0.029     32.37

------------------------------Saturation indices-------------------------------

  Phase               SI** log IAP   log K(332 K,   1 atm)

  CH4(g)         -106.53   -109.52   -2.99  CH4
  CO2(g)           -4.94     -6.73   -1.78  CO2
  H2(g)           -30.85    -33.98   -3.13  H2
  H2O(g)           -0.72     -0.00    0.71  H2O
  O2(g)           -11.20    -14.27   -3.06  O2

**For a gas, SI = log10(fugacity). Fugacity = pressure * phi / 1 atm.
  For ideal gases, phi = 1.

Reaction step 18.

Using solution 1.	
Using temperature 1.	

-----------------------------Solution composition------------------------------

	Elements           Molality       Moles

	C                 1.000e-01   1.000e-01
	Na                2.000e-01   2.000e-01

----------------------------Description of solution----------------------------

                                       pH  =  10.719      Charge balance
                                       pe  =   4.406      Adjusted to redox equilibrium
      Specific Conductance (µS/cm,  63°C)  = 30706
                          Density (g/cm³)  =   0.99194
                               Volume (L)  =   1.01887
                        Viscosity (mPa s)  =   0.46900
                        Activity of water  =   0.995
                 Ionic strength (mol/kgw)  =   2.904e-01
                       Mass of water (kg)  =   9.999e-01
                 Total alkalinity (eq/kg)  =   2.000e-01
                       Total CO2 (mol/kg)  =   1.000e-01
                         Temperature (°C)  =  63.16
                  Electrical balance (eq)  =  -2.509e-11
 Percent error, 100*(Cat-|An|)/(Cat+|An|)  =  -0.00
                               Iterations  =   5
                                  Total H  = 1.110194e+02
                                  Total O  = 5.580969e+01

----------------------------Distribution of species----------------------------

                                               Log       Log       Log    mole V
   Species          Molality    Activity  Molality  Activity     Gamma   cm³/mol

   OH-             9.026e-03   5.943e-03    -2.044    -2.226    -0.182     -3.03
   H+              2.479e-11   1.912e-11   -10.606   -10.719    -0.113      0.00
   H2O             5.551e+01   9.948e-01     1.744    -0.002     0.000     18.35
C(-4)         0.000e+00
   CH4             0.000e+00   0.000e+00  -108.099  -108.070     0.029     38.24
C(4)          1.000e-01
   CO3-2           9.098e-02   2.286e-02    -1.041    -1.641    -0.600     -1.43
   HCO3-           8.423e-03   5.995e-03    -2.075    -2.222    -0.148     27.89
   NaHCO3          6.025e-04   6.665e-04    -3.220    -3.176     0.044     19.56
   CO2             2.173e-07   2.271e-07    -6.663    -6.644     0.019     36.66
   (CO2)2          3.029e-15   3.166e-15   -14.519   -14.500     0.019     72.49
H(0)          5.319e-34
   H2              2.660e-34   2.853e-34   -33.575   -33.545     0.030     16.98
Na            2.000e-01
   Na+             1.994e-01   1.422e-01    -0.700    -0.847    -0.147      0.37
   NaHCO3          6.025e-04   6.665e-04    -3.220    -3.176     0.044     19.56
O(0)          1.011e-14
   O2              5.054e-15   5.403e-15   -14.296   -14.267     0.029     32.51

------------------------------Saturation indices-------------------------------

  Phase               SI** log IAP   log K(336 K,   1 atm)

  CH4(g)         -105.07   -108.07   -3.00  CH4
  CO2(g)           -4.84     -6.64   -1.80  CO2
  H2(g)           -30.42    -33.54   -3.13  H2
  H2O(g)           -0.65     -0.00    0.65  H2O
  O2(g)           -11.19    -14.27   -3.07  O2

**For a gas, SI = log10(fugacity). Fugacity = pressure * phi / 1 atm.
  For ideal gases, phi = 1.

Reaction step 19.

Using solution 1.	
Using temperature 1.	

-----------------------------Solution composition------------------------------

	Elements           Molality       Moles

	C                 1.000e-01   1.000e-01
	Na                2.000e-01   2.000e-01

----------------------------Description of solution----------------------------

                                       pH  =  10.675      Charge balance
                                       pe  =   4.251      Adjusted to redox equilibrium
      Specific Conductance (µS/cm,  67°C)  = 32196
                          Density (g/cm³)  =   0.99006
                               Volume (L)  =   1.02081
                        Viscosity (mPa s)  =   0.44637
                        Activity of water  =   0.995
                 Ionic strength (mol/kgw)  =   2.896e-01
                       Mass of water (kg)  =   9.999e-01
                 Total alkalinity (eq/kg)  =   2.000e-01
                       Total CO2 (mol/kg)  =   1.000e-01
                         Temperature (°C)  =  66.58
                  Electrical balance (eq)  =  -2.923e-11
 Percent error, 100*(Cat-|An|)/(Cat+|An|)  =  -0.00
                               Iterations  =   5
                                  Total H  = 1.110194e+02
                                  Total O  = 5.580969e+01

----------------------------Distribution of species----------------------------

                                               Log       Log       Log    mole V
   Species          Molality    Activity  Molality  Activity     Gamma   cm³/mol

   OH-             9.753e-03   6.405e-03    -2.011    -2.193    -0.183     -3.10
   H+              2.748e-11   2.116e-11   -10.561   -10.675    -0.114      0.00
   H2O             5.551e+01   9.947e-01     1.744    -0.002     0.000     18.39
C(-4)         0.000e+00
   CH4             0.000e+00   0.000e+00  -106.828  -106.799     0.029     38.48
C(4)          1.000e-01
   CO3-2           9.026e-02   2.249e-02    -1.045    -1.648    -0.603     -1.58
   HCO3-           9.077e-03   6.447e-03    -2.042    -2.191    -0.149     27.90
   NaHCO3          6.752e-04   7.467e-04    -3.171    -3.127     0.044     19.66
   CO2             2.623e-07   2.741e-07    -6.581    -6.562     0.019     36.85
   (CO2)2          4.724e-15   4.936e-15   -14.326   -14.307     0.019     72.87
H(0)          1.293e-33
   H2              6.467e-34   6.936e-34   -33.189   -33.159     0.030     17.12
Na            2.000e-01
   Na+             1.993e-01   1.418e-01    -0.700    -0.848    -0.148      0.44
   NaHCO3          6.752e-04   7.467e-04    -3.171    -3.127     0.044     19.66
O(0)          1.185e-14
   O2              5.926e-15   6.334e-15   -14.227   -14.198     0.029     32.66

------------------------------Saturation indices-------------------------------

  Phase               SI** log IAP   log K(339 K,   1 atm)

  CH4(g)         -103.80   -106.80   -3.00  CH4
  CO2(g)           -4.74     -6.56   -1.83  CO2
  H2(g)           -30.03    -33.16   -3.13  H2
  H2O(g)           -0.58     -0.00    0.58  H2O
  O2(g)           -11.12    -14.20   -3.08  O2

**For a gas, SI = log10(fugacity). Fugacity = pressure * phi / 1 atm.
  For ideal gases, phi = 1.

Reaction step 20.

Using solution 1.	
Using temperature 1.	

-----------------------------Solution composition------------------------------

	Elements           Molality       Moles

	C                 1.000e-01   1.000e-01
	Na                2.000e-01   2.000e-01

----------------------------Description of solution----------------------------

                                       pH  =  10.632      Charge balance
                                       pe  =   4.209      Adjusted to redox equilibrium
      Specific Conductance (µS/cm,  70°C)  = 33701
                          Density (g/cm³)  =   0.98812
                               Volume (L)  =   1.02281
                        Viscosity (mPa s)  =   0.42553
                        Activity of water  =   0.995
                 Ionic strength (mol/kgw)  =   2.888e-01
                       Mass of water (kg)  =   9.999e-01
                 Total alkalinity (eq/kg)  =   2.000e-01
                       Total CO2 (mol/kg)  =   1.000e-01
                         Temperature (°C)  =  70.00
                  Electrical balance (eq)  =  -5.221e-11
 Percent error, 100*(Cat-|An|)/(Cat+|An|)  =  -0.00
                               Iterations  =   5
                                  Total H  = 1.110194e+02
                                  Total O  = 5.580969e+01

----------------------------Distribution of species----------------------------

                                               Log       Log       Log    mole V
   Species          Molality    Activity  Molality  Activity     Gamma   cm³/mol

   OH-             1.052e-02   6.894e-03    -1.978    -2.162    -0.184     -3.19
   H+              3.032e-11   2.331e-11   -10.518   -10.632    -0.114      0.00
   H2O             5.551e+01   9.947e-01     1.744    -0.002     0.000     18.43
C(-4)         0.000e+00
   CH4             0.000e+00   0.000e+00  -106.469  -106.440     0.029     38.72
C(4)          1.000e-01
   CO3-2           8.949e-02   2.211e-02    -1.048    -1.655    -0.607     -1.76
   HCO3-           9.768e-03   6.923e-03    -2.010    -2.160    -0.150     27.89
   NaHCO3          7.557e-04   8.355e-04    -3.122    -3.078     0.044     19.76
   CO2             3.159e-07   3.301e-07    -6.500    -6.481     0.019     37.05
   (CO2)2          7.275e-15   7.601e-15   -14.138   -14.119     0.019     73.26
H(0)          1.858e-33
   H2              9.288e-34   9.960e-34   -33.032   -33.002     0.030     17.25
Na            2.000e-01
   Na+             1.993e-01   1.414e-01    -0.701    -0.850    -0.149      0.50
   NaHCO3          7.557e-04   8.355e-04    -3.122    -3.078     0.044     19.76
O(0)          3.788e-14
   O2              1.894e-14   2.024e-14   -13.723   -13.694     0.029     32.79

------------------------------Saturation indices-------------------------------

  Phase               SI** log IAP   log K(343 K,   1 atm)

  CH4(g)         -103.43   -106.44   -3.01  CH4
  CO2(g)           -4.64     -6.48   -1.85  CO2
  H2(g)           -29.88    -33.00   -3.12  H2
  H2O(g)           -0.52     -0.00    0.51  H2O
  O2(g)           -10.60    -13.69   -3.09  O2

**For a gas, SI = log10(fugacity). Fugacity = pressure * phi / 1 atm.
  For ideal gases, phi = 1.

------------------
End of simulation.
------------------

------------------------------------
Reading input data for simulation 3.
------------------------------------

	USE solution 2
	 USE reaction_temperature 1
	END
-----------------------------------------
Beginning of batch-reaction calculations.
-----------------------------------------

Reaction step 1.

Using solution 2.	
Using temperature 1.	

-----------------------------Solution composition------------------------------

	Elements           Molality       Moles

	C                 5.000e-01   5.000e-01
	Na                9.999e-01   1.000e+00

----------------------------Description of solution----------------------------

                                       pH  =  12.100      Charge balance
                                       pe  =  -5.946      Adjusted to redox equilibrium
      Specific Conductance (µS/cm,   5°C)  = 31342
                          Density (g/cm³)  =   1.05496
                               Volume (L)  =   0.99826
                        Viscosity (mPa s)  =   2.08406
                        Activity of water  =   0.974
                 Ionic strength (mol/kgw)  =   1.495e+00
                       Mass of water (kg)  =   1.000e+00
                 Total alkalinity (eq/kg)  =   9.999e-01
                       Total CO2 (mol/kg)  =   5.000e-01
                         Temperature (°C)  =   5.00
                  Electrical balance (eq)  =  -2.518e-11
 Percent error, 100*(Cat-|An|)/(Cat+|An|)  =  -0.00
                               Iterations  =  14
                                  Total H  = 1.110271e+02
                                  Total O  = 5.701357e+01

----------------------------Distribution of species----------------------------

                                               Log       Log       Log    mole V
   Species          Molality    Activity  Molality  Activity     Gamma   cm³/mol

   OH-             4.093e-03   2.288e-03    -2.388    -2.641    -0.253     -2.95
   H+              1.076e-12   7.938e-13   -11.968   -12.100    -0.132      0.00
   H2O             5.551e+01   9.744e-01     1.744    -0.011     0.000     18.02
C(-4)         4.659e-31
   CH4             4.659e-31   6.574e-31   -30.332   -30.182     0.150     33.36
C(4)          5.000e-01
   CO3-2           4.959e-01   8.464e-02    -0.305    -1.072    -0.768     -1.54
   HCO3-           3.648e-03   2.408e-03    -2.438    -2.618    -0.180     28.36
   NaHCO3          4.456e-04   7.494e-04    -3.351    -3.125     0.226     15.48
   CO2             5.132e-09   6.441e-09    -8.290    -8.191     0.099     33.79
   (CO2)2          1.600e-19   2.009e-19   -18.796   -18.697     0.099     66.74
H(0)          6.011e-16
   H2              3.006e-16   4.315e-16   -15.522   -15.365     0.157     13.02
Na            9.999e-01
   Na+             9.995e-01   7.799e-01    -0.000    -0.108    -0.108     -1.17
   NaHCO3          4.456e-04   7.494e-04    -3.351    -3.125     0.226     15.48
O(0)          0.000e+00
   O2              0.000e+00   0.000e+00   -68.954   -68.805     0.150     28.29

------------------------------Saturation indices-------------------------------

  Phase               SI** log IAP   log K(278 K,   1 atm)

  CH4(g)          -27.62    -30.18   -2.56  CH4
  CO2(g)           -7.00     -8.19   -1.19  CO2
  H2(g)           -12.32    -15.37   -3.05  H2
  H2O(g)           -2.07     -0.01    2.06  H2O
  O2(g)           -66.09    -68.80   -2.71  O2

**For a gas, SI = log10(fugacity). Fugacity = pressure * phi / 1 atm.
  For ideal gases, phi = 1.

Reaction step 2.

Using solution 2.	
Using temperature 1.	

-----------------------------Solution composition------------------------------

	Elements           Molality       Moles

	C                 5.000e-01   5.000e-01
	Na                9.999e-01   1.000e+00

----------------------------Description of solution----------------------------

                                       pH  =  12.008      Charge balance
                                       pe  =  -5.977      Adjusted to redox equilibrium
      Specific Conductance (µS/cm,   8°C)  = 34833
                          Density (g/cm³)  =   1.05415
                               Volume (L)  =   0.99903
                        Viscosity (mPa s)  =   1.87134
                        Activity of water  =   0.974
                 Ionic strength (mol/kgw)  =   1.495e+00
                       Mass of water (kg)  =   1.000e+00
[...]

  Phase               SI** log IAP   log K(322 K,   1 atm)

  CH4(g)         -114.92   -117.87   -2.96  CH4
  CO2(g)           -5.28     -6.99   -1.71  CO2
  H2(g)           -33.16    -36.28   -3.13  H2
  H2O(g)           -0.95     -0.02    0.93  H2O
  O2(g)            -9.39    -12.42   -3.03  O2

**For a gas, SI = log10(fugacity). Fugacity = pressure * phi / 1 atm.
  For ideal gases, phi = 1.

Reaction step 15.

Using solution 3.	
Using temperature 1.	

-----------------------------Solution composition------------------------------

	Elements           Molality       Moles

	C                 1.000e+00   1.000e+00
	Na                2.000e+00   2.000e+00

----------------------------Description of solution----------------------------

                                       pH  =  11.232      Charge balance
                                       pe  =   4.711      Adjusted to redox equilibrium
      Specific Conductance (µS/cm,  53°C)  = 141968
                          Density (g/cm³)  =   1.08369
                               Volume (L)  =   1.02075
                        Viscosity (mPa s)  =   0.90197
                        Activity of water  =   0.949
                 Ionic strength (mol/kgw)  =   2.975e+00
                       Mass of water (kg)  =   9.998e-01
                 Total alkalinity (eq/kg)  =   2.000e+00
                       Total CO2 (mol/kg)  =   1.000e+00
                         Temperature (°C)  =  52.89
                  Electrical balance (eq)  =  -7.573e-09
 Percent error, 100*(Cat-|An|)/(Cat+|An|)  =  -0.00
                               Iterations  =   4
                                  Total H  = 1.110327e+02
                                  Total O  = 5.851636e+01

----------------------------Distribution of species----------------------------

                                               Log       Log       Log    mole V
   Species          Molality    Activity  Molality  Activity     Gamma   cm³/mol

   OH-             2.135e-02   1.050e-02    -1.671    -1.979    -0.308      1.49
   H+              8.282e-12   5.859e-12   -11.082   -11.232    -0.150      0.00
   H2O             5.551e+01   9.487e-01     1.744    -0.023     0.000     18.26
C(-4)         0.000e+00
   CH4             0.000e+00   0.000e+00  -113.909  -113.611     0.297     37.53
C(4)          1.000e+00
   CO3-2           9.789e-01   1.220e-01    -0.009    -0.913    -0.904      4.65
   HCO3-           1.664e-02   1.043e-02    -1.779    -1.982    -0.203     38.30
   NaHCO3          4.709e-03   1.325e-02    -2.327    -1.878     0.449     19.20
   CO2             7.912e-08   1.243e-07    -7.102    -6.905     0.196     36.12
   (CO2)2          4.707e-16   7.398e-16   -15.327   -15.131     0.196     71.40
H(0)          6.951e-36
   H2              3.475e-36   7.134e-36   -35.459   -35.147     0.312     16.55
Na            2.000e+00
   Na+             1.996e+00   1.848e+00     0.300     0.267    -0.033      1.08
   NaHCO3          4.709e-03   1.325e-02    -2.327    -1.878     0.449     19.20
O(0)          1.743e-14
   O2              8.713e-15   1.728e-14   -14.060   -13.762     0.297     32.06

------------------------------Saturation indices-------------------------------

  Phase               SI** log IAP   log K(326 K,   1 atm)

  CH4(g)         -110.64   -113.61   -2.97  CH4
  CO2(g)           -5.17     -6.91   -1.73  CO2
  H2(g)           -32.02    -35.15   -3.13  H2
  H2O(g)           -0.88     -0.02    0.85  H2O
  O2(g)           -10.72    -13.76   -3.04  O2

**For a gas, SI = log10(fugacity). Fugacity = pressure * phi / 1 atm.
  For ideal gases, phi = 1.

Reaction step 16.

Using solution 3.	
Using temperature 1.	

-----------------------------Solution composition------------------------------

	Elements           Molality       Moles

	C                 1.000e+00   1.000e+00
	Na                2.000e+00   2.000e+00

----------------------------Description of solution----------------------------

                                       pH  =  11.183      Charge balance
                                       pe  =   4.492      Adjusted to redox equilibrium
      Specific Conductance (µS/cm,  56°C)  = 150006
                          Density (g/cm³)  =   1.08186
                               Volume (L)  =   1.02247
                        Viscosity (mPa s)  =   0.84972
                        Activity of water  =   0.949
                 Ionic strength (mol/kgw)  =   2.972e+00
                       Mass of water (kg)  =   9.998e-01
                 Total alkalinity (eq/kg)  =   2.000e+00
                       Total CO2 (mol/kg)  =   1.000e+00
                         Temperature (°C)  =  56.32
                  Electrical balance (eq)  =  -5.559e-09
 Percent error, 100*(Cat-|An|)/(Cat+|An|)  =  -0.00
                               Iterations  =   5
                                  Total H  = 1.110327e+02
                                  Total O  = 5.851636e+01

----------------------------Distribution of species----------------------------

                                               Log       Log       Log    mole V
   Species          Molality    Activity  Molality  Activity     Gamma   cm³/mol

   OH-             2.326e-02   1.140e-02    -1.633    -1.943    -0.310      1.51
   H+              9.292e-12   6.561e-12   -11.032   -11.183    -0.151      0.00
   H2O             5.551e+01   9.487e-01     1.744    -0.023     0.000     18.29
C(-4)         0.000e+00
   CH4             0.000e+00   0.000e+00  -112.096  -111.798     0.297     37.77
C(4)          1.000e+00
   CO3-2           9.770e-01   1.204e-01    -0.010    -0.919    -0.909      4.55
   HCO3-           1.799e-02   1.124e-02    -1.745    -1.949    -0.204     38.59
   NaHCO3          5.276e-03   1.483e-02    -2.278    -1.829     0.449     19.32
   CO2             9.581e-08   1.505e-07    -7.019    -6.822     0.196     36.30
   (CO2)2          7.559e-16   1.187e-15   -15.122   -14.925     0.196     71.75
H(0)          2.325e-35
   H2              1.162e-35   2.385e-35   -34.935   -34.623     0.312     16.70
Na            2.000e+00
   Na+             1.995e+00   1.840e+00     0.300     0.265    -0.035      1.13
   NaHCO3          5.276e-03   1.483e-02    -2.278    -1.829     0.449     19.32
O(0)          1.265e-14
   O2              6.327e-15   1.254e-14   -14.199   -13.902     0.297     32.22

------------------------------Saturation indices-------------------------------

  Phase               SI** log IAP   log K(329 K,   1 atm)

  CH4(g)         -108.82   -111.80   -2.98  CH4
  CO2(g)           -5.06     -6.82   -1.76  CO2
  H2(g)           -31.49    -34.62   -3.13  H2
  H2O(g)           -0.81     -0.02    0.78  H2O
  O2(g)           -10.85    -13.90   -3.05  O2

**For a gas, SI = log10(fugacity). Fugacity = pressure * phi / 1 atm.
  For ideal gases, phi = 1.

Reaction step 17.

Using solution 3.	
Using temperature 1.	

-----------------------------Solution composition------------------------------

	Elements           Molality       Moles

	C                 1.000e+00   1.000e+00
	Na                2.001e+00   2.000e+00

----------------------------Description of solution----------------------------

                                       pH  =  11.136      Charge balance
                                       pe  =   4.308      Adjusted to redox equilibrium
      Specific Conductance (µS/cm,  60°C)  = 158161
                          Density (g/cm³)  =   1.07999
                               Volume (L)  =   1.02424
                        Viscosity (mPa s)  =   0.80225
                        Activity of water  =   0.949
                 Ionic strength (mol/kgw)  =   2.970e+00
                       Mass of water (kg)  =   9.997e-01
                 Total alkalinity (eq/kg)  =   2.001e+00
                       Total CO2 (mol/kg)  =   1.000e+00
                         Temperature (°C)  =  59.74
                  Electrical balance (eq)  =  -5.559e-09
 Percent error, 100*(Cat-|An|)/(Cat+|An|)  =  -0.00
                               Iterations  =   5
                                  Total H  = 1.110327e+02
                                  Total O  = 5.851636e+01

----------------------------Distribution of species----------------------------

                                               Log       Log       Log    mole V
   Species          Molality    Activity  Molality  Activity     Gamma   cm³/mol

   OH-             2.532e-02   1.235e-02    -1.597    -1.908    -0.312      1.51
   H+              1.037e-11   7.309e-12   -10.984   -11.136    -0.152      0.00
   H2O             5.551e+01   9.487e-01     1.744    -0.023     0.000     18.32
C(-4)         0.000e+00
   CH4             0.000e+00   0.000e+00  -110.578  -110.281     0.297     38.00
C(4)          1.000e+00
   CO3-2           9.750e-01   1.187e-01    -0.011    -0.926    -0.915      4.42
   HCO3-           1.941e-02   1.210e-02    -1.712    -1.917    -0.205     38.86
   NaHCO3          5.905e-03   1.658e-02    -2.229    -1.780     0.448     19.44
   CO2             1.157e-07   1.817e-07    -6.937    -6.741     0.196     36.48
   (CO2)2          1.197e-15   1.880e-15   -14.922   -14.726     0.196     72.11
H(0)          6.549e-35
   H2              3.275e-35   6.714e-35   -34.485   -34.173     0.312     16.84
Na            2.001e+00
   Na+             1.995e+00   1.832e+00     0.300     0.263    -0.037      1.18
   NaHCO3          5.905e-03   1.658e-02    -2.229    -1.780     0.448     19.44
O(0)          1.228e-14
   O2              6.141e-15   1.217e-14   -14.212   -13.915     0.297     32.37

------------------------------Saturation indices-------------------------------

  Phase               SI** log IAP   log K(332 K,   1 atm)

  CH4(g)         -107.29   -110.28   -2.99  CH4
  CO2(g)           -4.96     -6.74   -1.78  CO2
  H2(g)           -31.04    -34.17   -3.13  H2
  H2O(g)           -0.74     -0.02    0.71  H2O
  O2(g)           -10.85    -13.91   -3.06  O2

**For a gas, SI = log10(fugacity). Fugacity = pressure * phi / 1 atm.
  For ideal gases, phi = 1.

Reaction step 18.

Using solution 3.	
Using temperature 1.	

-----------------------------Solution composition------------------------------

	Elements           Molality       Moles

	C                 1.000e+00   1.000e+00
	Na                2.001e+00   2.000e+00

----------------------------Description of solution----------------------------

                                       pH  =  11.091      Charge balance
                                       pe  =   4.164      Adjusted to redox equilibrium
      Specific Conductance (µS/cm,  63°C)  = 166425
                          Density (g/cm³)  =   1.07807
                               Volume (L)  =   1.02606
                        Viscosity (mPa s)  =   0.75896
                        Activity of water  =   0.949
                 Ionic strength (mol/kgw)  =   2.967e+00
                       Mass of water (kg)  =   9.997e-01
                 Total alkalinity (eq/kg)  =   2.001e+00
                       Total CO2 (mol/kg)  =   1.000e+00
                         Temperature (°C)  =  63.16
                  Electrical balance (eq)  =  -5.559e-09
 Percent error, 100*(Cat-|An|)/(Cat+|An|)  =  -0.00
                               Iterations  =   5
                                  Total H  = 1.110327e+02
                                  Total O  = 5.851636e+01

----------------------------Distribution of species----------------------------

                                               Log       Log       Log    mole V
   Species          Molality    Activity  Molality  Activity     Gamma   cm³/mol

   OH-             2.753e-02   1.337e-02    -1.560    -1.874    -0.314      1.50
   H+              1.152e-11   8.101e-12   -10.939   -11.091    -0.153      0.00
   H2O             5.551e+01   9.486e-01     1.744    -0.023     0.000     18.35
C(-4)         0.000e+00
   CH4             0.000e+00   0.000e+00  -109.393  -109.097     0.297     38.24
C(4)          1.000e+00
   CO3-2           9.728e-01   1.169e-01    -0.012    -0.932    -0.920      4.27
   HCO3-           2.093e-02   1.300e-02    -1.679    -1.886    -0.207     39.12
   NaHCO3          6.602e-03   1.852e-02    -2.180    -1.732     0.448     19.56
   CO2             1.394e-07   2.187e-07    -6.856    -6.660     0.196     36.66
   (CO2)2          1.872e-15   2.938e-15   -14.728   -14.532     0.196     72.49
H(0)          1.521e-34
   H2              7.603e-35   1.558e-34   -34.119   -33.808     0.312     16.98
Na            2.001e+00
   Na+             1.994e+00   1.823e+00     0.300     0.261    -0.039      1.22
   NaHCO3          6.602e-03   1.852e-02    -2.180    -1.732     0.448     19.56
O(0)          1.665e-14
   O2              8.326e-15   1.649e-14   -14.080   -13.783     0.297     32.51

------------------------------Saturation indices-------------------------------

  Phase               SI** log IAP   log K(336 K,   1 atm)

  CH4(g)         -106.10   -109.10   -3.00  CH4
  CO2(g)           -4.86     -6.66   -1.80  CO2
  H2(g)           -30.68    -33.81   -3.13  H2
  H2O(g)           -0.67     -0.02    0.65  H2O
  O2(g)           -10.71    -13.78   -3.07  O2

**For a gas, SI = log10(fugacity). Fugacity = pressure * phi / 1 atm.
  For ideal gases, phi = 1.

Reaction step 19.

Using solution 3.	
Using temperature 1.	

-----------------------------Solution composition------------------------------

	Elements           Molality       Moles

	C                 1.000e+00   1.000e+00
	Na                2.001e+00   2.000e+00

----------------------------Description of solution----------------------------

                                       pH  =  11.049      Charge balance
                                       pe  =   4.139      Adjusted to redox equilibrium
      Specific Conductance (µS/cm,  67°C)  = 174793
                          Density (g/cm³)  =   1.07611
                               Volume (L)  =   1.02794
                        Viscosity (mPa s)  =   0.71937
                        Activity of water  =   0.949
                 Ionic strength (mol/kgw)  =   2.964e+00
                       Mass of water (kg)  =   9.996e-01
                 Total alkalinity (eq/kg)  =   2.001e+00
                       Total CO2 (mol/kg)  =   1.000e+00
                         Temperature (°C)  =  66.58
                  Electrical balance (eq)  =  -5.562e-09
 Percent error, 100*(Cat-|An|)/(Cat+|An|)  =  -0.00
                               Iterations  =   5
                                  Total H  = 1.110327e+02
                                  Total O  = 5.851636e+01

----------------------------Distribution of species----------------------------

                                               Log       Log       Log    mole V
   Species          Molality    Activity  Molality  Activity     Gamma   cm³/mol

   OH-             2.990e-02   1.446e-02    -1.524    -1.840    -0.315      1.48
   H+              1.273e-11   8.936e-12   -10.895   -11.049    -0.154      0.00
   H2O             5.551e+01   9.486e-01     1.744    -0.023     0.000     18.39
C(-4)         0.000e+00
   CH4             0.000e+00   0.000e+00  -109.168  -108.872     0.296     38.48
C(4)          1.000e+00
   CO3-2           9.705e-01   1.152e-01    -0.013    -0.939    -0.926      4.09
   HCO3-           2.253e-02   1.395e-02    -1.647    -1.856    -0.208     39.37
   NaHCO3          7.372e-03   2.066e-02    -2.132    -1.685     0.448     19.66
   CO2             1.674e-07   2.626e-07    -6.776    -6.581     0.196     36.85
   (CO2)2          2.888e-15   4.531e-15   -14.539   -14.344     0.196     72.87
H(0)          2.028e-34
   H2              1.014e-34   2.076e-34   -33.994   -33.683     0.311     17.12
Na            2.001e+00
   Na+             1.993e+00   1.814e+00     0.300     0.259    -0.041      1.26
   NaHCO3          7.372e-03   2.066e-02    -2.132    -1.685     0.448     19.66
O(0)          6.497e-14
   O2              3.249e-14   6.428e-14   -13.488   -13.192     0.296     32.66

------------------------------Saturation indices-------------------------------

  Phase               SI** log IAP   log K(339 K,   1 atm)

  CH4(g)         -105.87   -108.87   -3.00  CH4
  CO2(g)           -4.75     -6.58   -1.83  CO2
  H2(g)           -30.56    -33.68   -3.13  H2
  H2O(g)           -0.60     -0.02    0.58  H2O
  O2(g)           -10.11    -13.19   -3.08  O2

**For a gas, SI = log10(fugacity). Fugacity = pressure * phi / 1 atm.
  For ideal gases, phi = 1.

Reaction step 20.

Using solution 3.	
Using temperature 1.	

-----------------------------Solution composition------------------------------

	Elements           Molality       Moles

	C                 1.000e+00   1.000e+00
	Na                2.001e+00   2.000e+00

----------------------------Description of solution----------------------------

                                       pH  =  11.008      Charge balance
                                       pe  =   4.167      Adjusted to redox equilibrium
      Specific Conductance (µS/cm,  70°C)  = 183258
                          Density (g/cm³)  =   1.07410
                               Volume (L)  =   1.02986
                        Viscosity (mPa s)  =   0.68305
                        Activity of water  =   0.949
                 Ionic strength (mol/kgw)  =   2.961e+00
                       Mass of water (kg)  =   9.996e-01
                 Total alkalinity (eq/kg)  =   2.001e+00
                       Total CO2 (mol/kg)  =   1.000e+00
                         Temperature (°C)  =  70.00
                  Electrical balance (eq)  =  -5.575e-09
 Percent error, 100*(Cat-|An|)/(Cat+|An|)  =  -0.00
                               Iterations  =   5
                                  Total H  = 1.110327e+02
                                  Total O  = 5.851636e+01

----------------------------Distribution of species----------------------------

                                               Log       Log       Log    mole V
   Species          Molality    Activity  Molality  Activity     Gamma   cm³/mol

   OH-             3.244e-02   1.562e-02    -1.489    -1.806    -0.317      1.44
   H+              1.401e-11   9.811e-12   -10.854   -11.008    -0.155      0.00
   H2O             5.551e+01   9.486e-01     1.744    -0.023     0.000     18.43
C(-4)         0.000e+00
   CH4             0.000e+00   0.000e+00  -109.385  -109.089     0.296     38.72
C(4)          1.000e+00
   CO3-2           9.680e-01   1.134e-01    -0.014    -0.945    -0.931      3.89
   HCO3-           2.422e-02   1.494e-02    -1.616    -1.826    -0.210     39.61
   NaHCO3          8.223e-03   2.302e-02    -2.085    -1.638     0.447     19.76
   CO2             2.005e-07   3.144e-07    -6.698    -6.502     0.195     37.05
   (CO2)2          4.399e-15   6.899e-15   -14.357   -14.161     0.195     73.26
H(0)          2.095e-34
   H2              1.048e-34   2.143e-34   -33.980   -33.669     0.311     17.25
Na            2.001e+00
   Na+             1.993e+00   1.805e+00     0.299     0.256    -0.043      1.30
   NaHCO3          8.223e-03   2.302e-02    -2.085    -1.638     0.447     19.76
O(0)          4.020e-13
   O2              2.010e-13   3.974e-13   -12.697   -12.401     0.296     32.79

------------------------------Saturation indices-------------------------------

  Phase               SI** log IAP   log K(343 K,   1 atm)

  CH4(g)         -106.08   -109.09   -3.01  CH4
  CO2(g)           -4.66     -6.50   -1.85  CO2
  H2(g)           -30.54    -33.67   -3.12  H2
  H2O(g)           -0.54     -0.02    0.51  H2O
  O2(g)            -9.31    -12.40   -3.09  O2

**For a gas, SI = log10(fugacity). Fugacity = pressure * phi / 1 atm.
  For ideal gases, phi = 1.

------------------
End of simulation.
------------------

------------------------------------
Reading input data for simulation 5.
------------------------------------

