WARNING: Database file from DATABASE keyword is used; command line argument ignored.
   Input file: aquia
  Output file: aquia.out
Database file: ../database/phreeqc.dat

------------------
Reading data base.
------------------

	SOLUTION_MASTER_SPECIES
	SOLUTION_SPECIES
	PHASES
	GAS_BINARY_PARAMETERS
	EXCHANGE_MASTER_SPECIES
	EXCHANGE_SPECIES
	SURFACE_MASTER_SPECIES
	SURFACE_SPECIES
	MEAN_GAMMAS
	RATES
	END
------------------------------------
Reading input data for simulation 1.
------------------------------------

	DATABASE ../database/phreeqc.dat
	SELECTED_OUTPUT 101
	    file                 aquia_101.sel
	USER_PUNCH 101
	    headings Mu
	    start
	10 PUNCH STR_F$(MU, 20, 12)
	20 PUNCH STR_F$(SC, 20, 10)
	    end
	EXCHANGE_SPECIES
	  H+ + X- = HX
	 log_k 3.0
	 gamma 9.0 0.0 3.4
	  Na+ + X- = NaX
	 log_k -0.5
	 gamma 4.0 0.075 0.5
	  K+ + X- = KX
	 log_k 0.902
	 gamma 3.5 0.015
	  Ca+2 + 2X- = CaX2
	 log_k 0.93
	 gamma 5.0 0.165
	  Mg+2 + 2X- = MgX2
	 log_k 0.614
	 gamma 5.5 0.20
	SOLUTION 0
	 units mol/kgw
	 pH 7.57
	 pe 8.0
	 temp 15
	 Ca 1.4000E-03
	 Alkalinity 2.8000E-03
	 Na 0.1e-3
	 K 0.05e-3
	 Cl 0.1e-3
	END
-------------------------------------------
Beginning of initial solution calculations.
-------------------------------------------

Initial solution 0.	

WARNING: USER_PUNCH: Headings count does not match number of calls to PUNCH.

-----------------------------Solution composition------------------------------

	Elements           Molality       Moles

	Alkalinity        2.800e-03   2.800e-03
	Ca                1.400e-03   1.400e-03
	Cl                1.000e-04   1.000e-04
	K                 5.000e-05   5.000e-05
	Na                1.000e-04   1.000e-04

----------------------------Description of solution----------------------------

                                       pH  =   7.570    
                                       pe  =   8.000    
      Specific Conductance (µS/cm,  15°C)  = 220
                          Density (g/cm³)  =   0.99929
                               Volume (L)  =   1.00095
                        Viscosity (mPa s)  =   1.13963
                        Activity of water  =   1.000
                 Ionic strength (mol/kgw)  =   4.313e-03
                       Mass of water (kg)  =   1.000e+00
                    Total carbon (mol/kg)  =   2.973e-03
                       Total CO2 (mol/kg)  =   2.973e-03
                         Temperature (°C)  =  15.00
                  Electrical balance (eq)  =   5.000e-05
 Percent error, 100*(Cat-|An|)/(Cat+|An|)  =   0.86
                               Iterations  =   6
                                  Total H  = 1.110152e+02
                                  Total O  = 5.551495e+01

----------------------------Distribution of species----------------------------

                                               Log       Log       Log    mole V
   Species          Molality    Activity  Molality  Activity     Gamma   cm³/mol

   OH-             1.809e-07   1.685e-07    -6.743    -6.773    -0.031     -4.59
   H+              2.868e-08   2.692e-08    -7.542    -7.570    -0.028      0.00
   H2O             5.551e+01   9.999e-01     1.744    -0.000     0.000     18.03
C(4)          2.973e-03
   HCO3-           2.779e-03   2.597e-03    -2.556    -2.586    -0.029     23.68
   CO2             1.832e-04   1.833e-04    -3.737    -3.737     0.000     34.32
   CaCO3           5.458e-06   5.464e-06    -5.263    -5.263     0.000    -14.63
   CO3-2           4.722e-06   3.598e-06    -5.326    -5.444    -0.118     -5.69
   NaHCO3          1.071e-07   1.072e-07    -6.970    -6.970     0.001     16.75
   KHCO3           4.561e-08   4.565e-08    -7.341    -7.341     0.000     20.57
   (CO2)2          3.138e-10   3.140e-10    -9.503    -9.503     0.000     67.80
   CaHCO3+         2.678e-11   2.504e-11   -10.572   -10.601    -0.029      9.25
Ca            1.400e-03
   Ca+2            1.395e-03   1.062e-03    -2.856    -2.974    -0.118    -18.20
   CaCO3           5.458e-06   5.464e-06    -5.263    -5.263     0.000    -14.63
   CaOH+           7.020e-09   6.548e-09    -8.154    -8.184    -0.030     (0)  
   CaHCO3+         2.678e-11   2.504e-11   -10.572   -10.601    -0.029      9.25
Cl            1.000e-04
   Cl-             1.000e-04   9.322e-05    -4.000    -4.030    -0.030     17.71
   HCl             9.158e-13   9.197e-13   -12.038   -12.036     0.002     19.56
H(0)          1.136e-34
   H2              5.679e-35   5.685e-35   -34.246   -34.245     0.000     14.15
K             5.000e-05
   K+              4.995e-05   4.656e-05    -4.301    -4.332    -0.031      8.66
   KHCO3           4.561e-08   4.565e-08    -7.341    -7.341     0.000     20.57
Na            1.000e-04
   Na+             9.989e-05   9.324e-05    -4.000    -4.030    -0.030     -2.04
   NaHCO3          1.071e-07   1.072e-07    -6.970    -6.970     0.001     16.75
O(0)          9.683e-28
   O2              4.842e-28   4.847e-28   -27.315   -27.315     0.000     29.51

------------------------------Saturation indices-------------------------------

  Phase               SI** log IAP   log K(288 K,   1 atm)

  Aragonite        -0.14     -8.42   -8.28  CaCO3
  Calcite          -0.04     -8.42   -8.38  CaCO3
  CO2(g)           -2.40     -3.74   -1.34  CO2
  H2(g)           -31.17    -34.25   -3.08  H2
  H2O(g)           -1.77     -0.00    1.77  H2O
  Halite           -9.62     -8.06    1.56  NaCl
  O2(g)           -24.50    -27.31   -2.81  O2
  Sylvite          -9.21     -8.36    0.85  KCl

**For a gas, SI = log10(fugacity). Fugacity = pressure * phi / 1 atm.
  For ideal gases, phi = 1.

------------------
End of simulation.
------------------

------------------------------------
Reading input data for simulation 2.
------------------------------------

	 SOLUTION 1-3 # Fill first 10 miles with just average infiltrating water; no X
	 units mol/kgw
	 pH 7.57
	 pe 8.0
	 temp 15
	 Ca 1.4000E-03
	 Alkalinity 2.8000E-03
	 Na 0.1e-3
	 K 0.05e-3
	 Cl 0.1e-3
	EQUILIBRIUM_PHASES 1-3
	 Calcite
	SAVE solution 1-3
	END
-------------------------------------------
Beginning of initial solution calculations.
-------------------------------------------

Initial solution 1.	

-----------------------------Solution composition------------------------------

	Elements           Molality       Moles

	Alkalinity        2.800e-03   2.800e-03
	Ca                1.400e-03   1.400e-03
	Cl                1.000e-04   1.000e-04
	K                 5.000e-05   5.000e-05
	Na                1.000e-04   1.000e-04

----------------------------Description of solution----------------------------

                                       pH  =   7.570    
                                       pe  =   8.000    
      Specific Conductance (µS/cm,  15°C)  = 220
                          Density (g/cm³)  =   0.99929
                               Volume (L)  =   1.00095
                        Viscosity (mPa s)  =   1.13963
                        Activity of water  =   1.000
                 Ionic strength (mol/kgw)  =   4.313e-03
                       Mass of water (kg)  =   1.000e+00
                    Total carbon (mol/kg)  =   2.973e-03
                       Total CO2 (mol/kg)  =   2.973e-03
                         Temperature (°C)  =  15.00
                  Electrical balance (eq)  =   5.000e-05
 Percent error, 100*(Cat-|An|)/(Cat+|An|)  =   0.86
                               Iterations  =   6
                                  Total H  = 1.110152e+02
                                  Total O  = 5.551495e+01

----------------------------Distribution of species----------------------------

                                               Log       Log       Log    mole V
   Species          Molality    Activity  Molality  Activity     Gamma   cm³/mol

   OH-             1.809e-07   1.685e-07    -6.743    -6.773    -0.031     -4.59
   H+              2.868e-08   2.692e-08    -7.542    -7.570    -0.028      0.00
   H2O             5.551e+01   9.999e-01     1.744    -0.000     0.000     18.03
C(4)          2.973e-03
   HCO3-           2.779e-03   2.597e-03    -2.556    -2.586    -0.029     23.68
   CO2             1.832e-04   1.833e-04    -3.737    -3.737     0.000     34.32
   CaCO3           5.458e-06   5.464e-06    -5.263    -5.263     0.000    -14.63
   CO3-2           4.722e-06   3.598e-06    -5.326    -5.444    -0.118     -5.69
   NaHCO3          1.071e-07   1.072e-07    -6.970    -6.970     0.001     16.75
   KHCO3           4.561e-08   4.565e-08    -7.341    -7.341     0.000     20.57
   (CO2)2          3.138e-10   3.140e-10    -9.503    -9.503     0.000     67.80
   CaHCO3+         2.678e-11   2.504e-11   -10.572   -10.601    -0.029      9.25
Ca            1.400e-03
   Ca+2            1.395e-03   1.062e-03    -2.856    -2.974    -0.118    -18.20
   CaCO3           5.458e-06   5.464e-06    -5.263    -5.263     0.000    -14.63
   CaOH+           7.020e-09   6.548e-09    -8.154    -8.184    -0.030     (0)  
   CaHCO3+         2.678e-11   2.504e-11   -10.572   -10.601    -0.029      9.25
Cl            1.000e-04
   Cl-             1.000e-04   9.322e-05    -4.000    -4.030    -0.030     17.71
   HCl             9.158e-13   9.197e-13   -12.038   -12.036     0.002     19.56
H(0)          1.136e-34
   H2              5.679e-35   5.685e-35   -34.246   -34.245     0.000     14.15
K             5.000e-05
   K+              4.995e-05   4.656e-05    -4.301    -4.332    -0.031      8.66
   KHCO3           4.561e-08   4.565e-08    -7.341    -7.341     0.000     20.57
Na            1.000e-04
   Na+             9.989e-05   9.324e-05    -4.000    -4.030    -0.030     -2.04
   NaHCO3          1.071e-07   1.072e-07    -6.970    -6.970     0.001     16.75
O(0)          9.683e-28
   O2              4.842e-28   4.847e-28   -27.315   -27.315     0.000     29.51

------------------------------Saturation indices-------------------------------

  Phase               SI** log IAP   log K(288 K,   1 atm)

  Aragonite        -0.14     -8.42   -8.28  CaCO3
  Calcite          -0.04     -8.42   -8.38  CaCO3
  CO2(g)           -2.40     -3.74   -1.34  CO2
  H2(g)           -31.17    -34.25   -3.08  H2
  H2O(g)           -1.77     -0.00    1.77  H2O
  Halite           -9.62     -8.06    1.56  NaCl
  O2(g)           -24.50    -27.31   -2.81  O2
  Sylvite          -9.21     -8.36    0.85  KCl

**For a gas, SI = log10(fugacity). Fugacity = pressure * phi / 1 atm.
  For ideal gases, phi = 1.

-----------------------------------------
Beginning of batch-reaction calculations.
-----------------------------------------

Reaction step 1.

Using solution 1.	
Using pure phase assemblage 1.	

-------------------------------Phase assemblage--------------------------------

                                                      Moles in assemblage
Phase               SI  log IAP  log K(T, P)   Initial       Final       Delta

Calcite           0.00    -8.38     -8.38    1.000e+01   1.000e+01  -1.287e-05

-----------------------------Solution composition------------------------------

	Elements           Molality       Moles

	C                 2.986e-03   2.986e-03
	Ca                1.413e-03   1.413e-03
	Cl                1.000e-04   1.000e-04
	K                 5.000e-05   5.000e-05
	Na                1.000e-04   1.000e-04

----------------------------Description of solution----------------------------

                                       pH  =   7.603      Charge balance
                                       pe  =  -2.159      Adjusted to redox equilibrium
      Specific Conductance (µS/cm,  15°C)  = 221
                          Density (g/cm³)  =   0.99929
                               Volume (L)  =   1.00095
                        Viscosity (mPa s)  =   1.13964
                        Activity of water  =   1.000
                 Ionic strength (mol/kgw)  =   4.351e-03
                       Mass of water (kg)  =   1.000e+00
                 Total alkalinity (eq/kg)  =   2.826e-03
                       Total CO2 (mol/kg)  =   2.986e-03
                         Temperature (°C)  =  15.00
                  Electrical balance (eq)  =   5.000e-05
 Percent error, 100*(Cat-|An|)/(Cat+|An|)  =   0.85
                               Iterations  =  17
                                  Total H  = 1.110152e+02
                                  Total O  = 5.551499e+01

----------------------------Distribution of species----------------------------

                                               Log       Log       Log    mole V
   Species          Molality    Activity  Molality  Activity     Gamma   cm³/mol

   OH-             1.951e-07   1.817e-07    -6.710    -6.741    -0.031     -4.59
   H+              2.660e-08   2.496e-08    -7.575    -7.603    -0.028      0.00
   H2O             5.551e+01   9.999e-01     1.744    -0.000     0.000     18.03
C(-4)         2.871e-22
   CH4             2.871e-22   2.874e-22   -21.542   -21.542     0.000     34.53
C(4)          2.986e-03
   HCO3-           2.803e-03   2.618e-03    -2.552    -2.582    -0.030     23.68
   CO2             1.713e-04   1.714e-04    -3.766    -3.766     0.000     34.32
   CaCO3           5.981e-06   5.987e-06    -5.223    -5.223     0.000    -14.63
   CO3-2           5.140e-06   3.912e-06    -5.289    -5.408    -0.119     -5.69
   NaHCO3          1.079e-07   1.081e-07    -6.967    -6.966     0.001     16.75
   KHCO3           4.597e-08   4.602e-08    -7.337    -7.337     0.000     20.57
   (CO2)2          2.744e-10   2.745e-10    -9.562    -9.561     0.000     67.80
   CaHCO3+         2.722e-11   2.545e-11   -10.565   -10.594    -0.029      9.25
Ca            1.413e-03
   Ca+2            1.407e-03   1.070e-03    -2.852    -2.971    -0.119    -18.20
   CaCO3           5.981e-06   5.987e-06    -5.223    -5.223     0.000    -14.63
   CaOH+           7.632e-09   7.116e-09    -8.117    -8.148    -0.030     (0)  
   CaHCO3+         2.722e-11   2.545e-11   -10.565   -10.594    -0.029      9.25
Cl            1.000e-04
   Cl-             1.000e-04   9.319e-05    -4.000    -4.031    -0.031     17.71
   HCl             8.489e-13   8.526e-13   -12.071   -12.069     0.002     19.56
H(0)          2.029e-14
   H2              1.015e-14   1.016e-14   -13.994   -13.993     0.000     14.15
K             5.000e-05
   K+              4.995e-05   4.654e-05    -4.301    -4.332    -0.031      8.66
   KHCO3           4.597e-08   4.602e-08    -7.337    -7.337     0.000     20.57
Na            1.000e-04
   Na+             9.989e-05   9.321e-05    -4.000    -4.031    -0.030     -2.04
   NaHCO3          1.079e-07   1.081e-07    -6.967    -6.966     0.001     16.75
O(0)          0.000e+00
   O2              0.000e+00   0.000e+00   -67.819   -67.819     0.000     29.51

------------------------------Saturation indices-------------------------------

  Phase               SI** log IAP   log K(288 K,   1 atm)

  Aragonite        -0.10     -8.38   -8.28  CaCO3
  Calcite           0.00     -8.38   -8.38  CaCO3
  CH4(g)          -18.85    -21.54   -2.70  CH4
  CO2(g)           -2.42     -3.77   -1.34  CO2
  H2(g)           -10.92    -13.99   -3.08  H2
  H2O(g)           -1.77     -0.00    1.77  H2O
  Halite           -9.62     -8.06    1.56  NaCl
  O2(g)           -65.01    -67.82   -2.81  O2
  Sylvite          -9.21     -8.36    0.85  KCl

**For a gas, SI = log10(fugacity). Fugacity = pressure * phi / 1 atm.
  For ideal gases, phi = 1.

------------------
End of simulation.
------------------

------------------------------------
Reading input data for simulation 3.
------------------------------------

	 SOLUTION 4-21 # Fill flowline with 18% seawater, CEC = 0.20 M
	 units mol/kgw
	 pH 6.80
	 pe 8.0
	 temp 15
	 dens 1.023
	 Ca 4.3790E-03
	 Mg 9.9162E-03
	 Na 87.381E-03
	 K 1.9044E-03
	 Cl 101.84E-03
	 Alkalinity 15.502E-03
	 S(6) 0.2670E-03
	EQUILIBRIUM_PHASES 4-21
	 Calcite
	SAVE solution 4-21
	END
-------------------------------------------
Beginning of initial solution calculations.
-------------------------------------------

Initial solution 4.	

-----------------------------Solution composition------------------------------

	Elements           Molality       Moles

	Alkalinity        1.550e-02   1.550e-02
	Ca                4.379e-03   4.379e-03
	Cl                1.018e-01   1.018e-01
	K                 1.904e-03   1.904e-03
	Mg                9.916e-03   9.916e-03
	Na                8.738e-02   8.738e-02
	S(6)              2.670e-04   2.670e-04

----------------------------Description of solution----------------------------

                                       pH  =   6.800    
                                       pe  =   8.000    
      Specific Conductance (µS/cm,  15°C)  = 9351
                          Density (g/cm³)  =   1.00441
                               Volume (L)  =   1.00287
                        Viscosity (mPa s)  =   1.15561
                        Activity of water  =   0.996
                 Ionic strength (mol/kgw)  =   1.306e-01
                       Mass of water (kg)  =   1.000e+00
                    Total carbon (mol/kg)  =   2.010e-02
                       Total CO2 (mol/kg)  =   2.010e-02
                         Temperature (°C)  =  15.00
                  Electrical balance (eq)  =  -2.000e-07
 Percent error, 100*(Cat-|An|)/(Cat+|An|)  =  -0.00
                               Iterations  =   8
                                  Total H  = 1.110279e+02
                                  Total O  = 5.556296e+01

----------------------------Distribution of species----------------------------

                                               Log       Log       Log    mole V
   Species          Molality    Activity  Molality  Activity     Gamma   cm³/mol

   H+              1.940e-07   1.585e-07    -6.712    -6.800    -0.088      0.00
   OH-             3.831e-08   2.851e-08    -7.417    -7.545    -0.128     -4.20
   H2O             5.551e+01   9.962e-01     1.744    -0.002     0.000     18.03
C(4)          2.010e-02
   HCO3-           1.453e-02   1.129e-02    -1.838    -1.947    -0.110     24.59
   CO2             4.617e-03   4.709e-03    -2.336    -2.327     0.009     34.32
   MgHCO3+         6.060e-04   4.564e-04    -3.218    -3.341    -0.123      5.32
   NaHCO3          3.215e-04   3.364e-04    -3.493    -3.473     0.020     16.75
   MgCO3           7.538e-06   7.768e-06    -5.123    -5.110     0.013    -17.08
   CO3-2           7.359e-06   2.655e-06    -5.133    -5.576    -0.443     -4.25
   CaCO3           5.914e-06   6.094e-06    -5.228    -5.215     0.013    -14.63
   KHCO3           5.865e-06   6.044e-06    -5.232    -5.219     0.013     20.57
   (CO2)2          2.031e-07   2.072e-07    -6.692    -6.684     0.009     67.80
   CaHCO3+         2.100e-10   1.645e-10    -9.678    -9.784    -0.106      9.39
Ca            4.379e-03
   Ca+2            4.364e-03   1.605e-03    -2.360    -2.795    -0.434    -17.59
   CaSO4           9.492e-06   9.620e-06    -5.023    -5.017     0.006      6.01
   CaCO3           5.914e-06   6.094e-06    -5.228    -5.215     0.013    -14.63
   CaOH+           2.174e-09   1.674e-09    -8.663    -8.776    -0.114     (0)  
   CaHCO3+         2.100e-10   1.645e-10    -9.678    -9.784    -0.106      9.39
   CaHSO4+         1.883e-11   1.450e-11   -10.725   -10.839    -0.114     (0)  
Cl            1.018e-01
   Cl-             1.018e-01   7.643e-02    -0.992    -1.117    -0.125     17.96
   HCl             3.907e-09   4.440e-09    -8.408    -8.353     0.056     19.56
H(0)          3.820e-33
   H2              1.910e-33   1.971e-33   -32.719   -32.705     0.014     14.15
K             1.904e-03
   K+              1.897e-03   1.418e-03    -2.722    -2.848    -0.126      8.89
   KHCO3           5.865e-06   6.044e-06    -5.232    -5.219     0.013     20.57
   KSO4-           1.533e-06   1.258e-06    -5.814    -5.900    -0.086     27.21
Mg            9.916e-03
   Mg+2            9.262e-03   3.575e-03    -2.033    -2.447    -0.413    -20.74
   MgHCO3+         6.060e-04   4.564e-04    -3.218    -3.341    -0.123      5.32
   MgSO4           4.089e-05   4.342e-05    -4.388    -4.362     0.026     -1.40
   MgCO3           7.538e-06   7.768e-06    -5.123    -5.110     0.013    -17.08
   MgOH+           4.058e-08   3.205e-08    -7.392    -7.494    -0.103     (0)  
   Mg(SO4)2-2      2.561e-08   1.041e-08    -7.592    -7.982    -0.391     39.84
Na            8.738e-02
   Na+             8.702e-02   6.730e-02    -1.060    -1.172    -0.112     -1.62
   NaHCO3          3.215e-04   3.364e-04    -3.493    -3.473     0.020     16.75
   NaSO4-          4.133e-05   3.177e-05    -4.384    -4.498    -0.114     18.09
   Na2SO4          3.582e-10   3.679e-10    -9.446    -9.434     0.012     53.68
O(0)          7.765e-31
   O2              3.883e-31   4.001e-31   -30.411   -30.398     0.013     29.51
S(6)          2.670e-04
   SO4-2           1.737e-04   6.008e-05    -3.760    -4.221    -0.461     13.52
   NaSO4-          4.133e-05   3.177e-05    -4.384    -4.498    -0.114     18.09
   MgSO4           4.089e-05   4.342e-05    -4.388    -4.362     0.026     -1.40
   CaSO4           9.492e-06   9.620e-06    -5.023    -5.017     0.006      6.01
   KSO4-           1.533e-06   1.258e-06    -5.814    -5.900    -0.086     27.21
   Mg(SO4)2-2      2.561e-08   1.041e-08    -7.592    -7.982    -0.391     39.84
   HSO4-           9.756e-10   7.512e-10    -9.011    -9.124    -0.114     39.73
   Na2SO4          3.582e-10   3.679e-10    -9.446    -9.434     0.012     53.68
   CaHSO4+         1.883e-11   1.450e-11   -10.725   -10.839    -0.114     (0)  

------------------------------Saturation indices-------------------------------

  Phase               SI** log IAP   log K(288 K,   1 atm)

  Anhydrite        -2.86     -7.02   -4.16  CaSO4
  Aragonite        -0.09     -8.37   -8.28  CaCO3
  Arcanite         -7.89     -9.92   -2.02  K2SO4
  Calcite           0.01     -8.37   -8.38  CaCO3
  CO2(g)           -0.99     -2.33   -1.34  CO2
  Dolomite          0.54    -16.39  -16.94  CaMg(CO3)2
  Epsomite         -4.88     -6.68   -1.80  MgSO4:7H2O
  Gypsum           -2.50     -7.02   -4.52  CaSO4:2H2O
  H2(g)           -29.63    -32.71   -3.08  H2
  H2O(g)           -1.77     -0.00    1.77  H2O
  Halite           -3.85     -2.29    1.56  NaCl
  Hexahydrite      -5.10     -6.68   -1.58  MgSO4:6H2O
  Kieserite        -5.42     -6.67   -1.25  MgSO4:H2O
  Mirabilite       -5.17     -6.58   -1.42  Na2SO4:10H2O
  O2(g)           -27.59    -30.40   -2.81  O2
  Sylvite          -4.81     -3.96    0.85  KCl
  Thenardite       -7.35     -6.57    0.78  Na2SO4

**For a gas, SI = log10(fugacity). Fugacity = pressure * phi / 1 atm.
  For ideal gases, phi = 1.

-----------------------------------------
Beginning of batch-reaction calculations.
-----------------------------------------

Reaction step 1.

Using solution 4.	
Using pure phase assemblage 4.	

-------------------------------Phase assemblage--------------------------------

                                                      Moles in assemblage
Phase               SI  log IAP  log K(T, P)   Initial       Final       Delta

Calcite           0.00    -8.38     -8.38    1.000e+01   1.000e+01   2.567e-05

-----------------------------Solution composition------------------------------

	Elements           Molality       Moles

	C                 2.007e-02   2.007e-02
	Ca                4.353e-03   4.353e-03
	Cl                1.018e-01   1.018e-01
	K                 1.904e-03   1.904e-03
	Mg                9.916e-03   9.916e-03
	Na                8.738e-02   8.738e-02
	S                 2.670e-04   2.670e-04

----------------------------Description of solution----------------------------

                                       pH  =   6.796      Charge balance
                                       pe  =  11.995      Adjusted to redox equilibrium
      Specific Conductance (µS/cm,  15°C)  = 9348
                          Density (g/cm³)  =   1.00440
                               Volume (L)  =   1.00287
                        Viscosity (mPa s)  =   1.15560
                        Activity of water  =   0.996
                 Ionic strength (mol/kgw)  =   1.305e-01
                       Mass of water (kg)  =   1.000e+00
                 Total alkalinity (eq/kg)  =   1.545e-02
                       Total CO2 (mol/kg)  =   2.007e-02
                         Temperature (°C)  =  15.00
                  Electrical balance (eq)  =  -2.000e-07
 Percent error, 100*(Cat-|An|)/(Cat+|An|)  =  -0.00
                               Iterations  =  14
                                  Total H  = 1.110279e+02
                                  Total O  = 5.556289e+01

----------------------------Distribution of species----------------------------

                                               Log       Log       Log    mole V
   Species          Molality    Activity  Molality  Activity     Gamma   cm³/mol

   H+              1.957e-07   1.599e-07    -6.708    -6.796    -0.088      0.00
   OH-             3.797e-08   2.827e-08    -7.421    -7.549    -0.128     -4.20
   H2O             5.551e+01   9.962e-01     1.744    -0.002     0.000     18.03
C(-4)         0.000e+00
   CH4             0.000e+00   0.000e+00  -126.885  -126.872     0.013     34.53
C(4)          2.007e-02
   HCO3-           1.448e-02   1.125e-02    -1.839    -1.949    -0.110     24.59
   CO2             4.642e-03   4.735e-03    -2.333    -2.325     0.009     34.32
   MgHCO3+         6.042e-04   4.550e-04    -3.219    -3.342    -0.123      5.32
   NaHCO3          3.204e-04   3.353e-04    -3.494    -3.475     0.020     16.75
   MgCO3           7.450e-06   7.678e-06    -5.128    -5.115     0.013    -17.08
   CO3-2           7.270e-06   2.623e-06    -5.138    -5.581    -0.443     -4.25
   KHCO3           5.846e-06   6.025e-06    -5.233    -5.220     0.013     20.57
   CaCO3           5.810e-06   5.987e-06    -5.236    -5.223     0.013    -14.63
   (CO2)2          2.054e-07   2.095e-07    -6.687    -6.679     0.009     67.80
   CaHCO3+         2.081e-10   1.630e-10    -9.682    -9.788    -0.106      9.39
Ca            4.353e-03
   Ca+2            4.338e-03   1.596e-03    -2.363    -2.797    -0.434    -17.59
   CaSO4           9.441e-06   9.568e-06    -5.025    -5.019     0.006      6.01
   CaCO3           5.810e-06   5.987e-06    -5.236    -5.223     0.013    -14.63
   CaOH+           2.143e-09   1.650e-09    -8.669    -8.782    -0.114     (0)  
   CaHCO3+         2.081e-10   1.630e-10    -9.682    -9.788    -0.106      9.39
   CaHSO4+         1.889e-11   1.454e-11   -10.724   -10.837    -0.114     (0)  
Cl            1.018e-01
   Cl-             1.018e-01   7.643e-02    -0.992    -1.117    -0.125     17.96
   HCl             3.941e-09   4.479e-09    -8.404    -8.349     0.056     19.56
H(0)          0.000e+00
   H2              0.000e+00   0.000e+00   -40.701   -40.687     0.014     14.15
K             1.904e-03
   K+              1.897e-03   1.418e-03    -2.722    -2.848    -0.126      8.89
   KHCO3           5.846e-06   6.025e-06    -5.233    -5.220     0.013     20.57
   KSO4-           1.534e-06   1.259e-06    -5.814    -5.900    -0.086     27.21
Mg            9.916e-03
   Mg+2            9.264e-03   3.576e-03    -2.033    -2.447    -0.413    -20.74
   MgHCO3+         6.042e-04   4.550e-04    -3.219    -3.342    -0.123      5.32
   MgSO4           4.092e-05   4.345e-05    -4.388    -4.362     0.026     -1.40
   MgCO3           7.450e-06   7.678e-06    -5.128    -5.115     0.013    -17.08
   MgOH+           4.024e-08   3.178e-08    -7.395    -7.498    -0.103     (0)  
   Mg(SO4)2-2      2.563e-08   1.042e-08    -7.591    -7.982    -0.391     39.84
Na            8.738e-02
   Na+             8.702e-02   6.730e-02    -1.060    -1.172    -0.112     -1.62
   NaHCO3          3.204e-04   3.353e-04    -3.494    -3.475     0.020     16.75
   NaSO4-          4.134e-05   3.178e-05    -4.384    -4.498    -0.114     18.09
   Na2SO4          3.584e-10   3.680e-10    -9.446    -9.434     0.012     53.68
O(0)          7.139e-15
   O2              3.569e-15   3.678e-15   -14.447   -14.434     0.013     29.51
S(-2)         0.000e+00
   H2S             0.000e+00   0.000e+00  -125.882  -125.869     0.013     33.43
   HS-             0.000e+00   0.000e+00  -126.030  -126.158    -0.128     20.31
   S-2             0.000e+00   0.000e+00  -132.132  -132.587    -0.456     (0)  
   (H2S)2          0.000e+00   0.000e+00  -253.148  -253.135     0.013     30.48
S(6)          2.670e-04
   SO4-2           1.737e-04   6.009e-05    -3.760    -4.221    -0.461     13.52
   NaSO4-          4.134e-05   3.178e-05    -4.384    -4.498    -0.114     18.09
   MgSO4           4.092e-05   4.345e-05    -4.388    -4.362     0.026     -1.40
   CaSO4           9.441e-06   9.568e-06    -5.025    -5.019     0.006      6.01
   KSO4-           1.534e-06   1.259e-06    -5.814    -5.900    -0.086     27.21
   Mg(SO4)2-2      2.563e-08   1.042e-08    -7.591    -7.982    -0.391     39.84
   HSO4-           9.844e-10   7.580e-10    -9.007    -9.120    -0.114     39.73
   Na2SO4          3.584e-10   3.680e-10    -9.446    -9.434     0.012     53.68
   CaHSO4+         1.889e-11   1.454e-11   -10.724   -10.837    -0.114     (0)  

------------------------------Saturation indices-------------------------------

  Phase               SI** log IAP   log K(288 K,   1 atm)

  Anhydrite        -2.86     -7.02   -4.16  CaSO4
  Aragonite        -0.10     -8.38   -8.28  CaCO3
  Arcanite         -7.89     -9.92   -2.02  K2SO4
  Calcite           0.00     -8.38   -8.38  CaCO3
  CH4(g)         -124.18   -126.87   -2.70  CH4
  CO2(g)           -0.98     -2.32   -1.34  CO2
  Dolomite          0.53    -16.41  -16.94  CaMg(CO3)2
  Epsomite         -4.88     -6.68   -1.80  MgSO4:7H2O
  Gypsum           -2.50     -7.02   -4.52  CaSO4:2H2O
  H2(g)           -37.61    -40.69   -3.08  H2
  H2O(g)           -1.77     -0.00    1.77  H2O
  H2S(g)         -124.99   -132.95   -7.96  H2S
  Halite           -3.85     -2.29    1.56  NaCl
  Hexahydrite      -5.10     -6.68   -1.58  MgSO4:6H2O
  Kieserite        -5.42     -6.67   -1.25  MgSO4:H2O
  Mirabilite       -5.17     -6.58   -1.42  Na2SO4:10H2O
  O2(g)           -11.62    -14.43   -2.81  O2
  Sulfur          -93.41    -88.29    5.12  S
  Sylvite          -4.81     -3.96    0.85  KCl
  Thenardite       -7.35     -6.57    0.78  Na2SO4

**For a gas, SI = log10(fugacity). Fugacity = pressure * phi / 1 atm.
  For ideal gases, phi = 1.

------------------
End of simulation.
------------------

------------------------------------
Reading input data for simulation 4.
------------------------------------

	EXCHANGE 4-21
	 X 0.2
	 equilibrate 4
	END 
-------------------------------------------------------
Beginning of initial exchange-composition calculations.
-------------------------------------------------------

Exchange 4.	

X                2.000e-01 mol

	                               Equiv-    Equivalent      Log 
	Species             Moles      alents      Fraction     Gamma

	HX                4.518e-02   4.518e-02   2.259e-01    -2.720
	NaX               3.785e-02   3.785e-02   1.892e-01    -0.519
	MgX2              2.763e-02   5.526e-02   2.763e-01    -0.413
	CaX2              2.678e-02   5.357e-02   2.678e-01    -0.434
	KX                8.154e-03   8.154e-03   4.077e-02    -0.126

------------------
End of simulation.
------------------

------------------------------------
Reading input data for simulation 5.
------------------------------------

	MIX	13	
		11	0.9	
		13	0.1
	MIX	14	
		13	0.8	
		14	0.2
	MIX	15	
		14	0.7	
		15	0.3
	MIX	16	
		15	0.6	
		16	0.4
	MIX	17	
		16	0.5	
		17	0.5
	MIX	18	
		17	0.4	
		18	0.6
	MIX	19	
		18	0.3	
		19	0.7
	MIX	20	
		19	0.2	
		20	0.8
	MIX	21	
		20	0.1	
		21	0.9
	END
-----------------------------------------
Beginning of batch-reaction calculations.
-----------------------------------------

Reaction step 1.

Using mix 13.	

Mixture 13.	

	  9.000e-01 Solution 11	Solution after simulation 3.                           
	  1.000e-01 Solution 13	Solution after simulation 3.                           

-----------------------------Solution composition------------------------------

	Elements           Molality       Moles

	C                 2.007e-02   2.007e-02
	Ca                4.353e-03   4.353e-03
	Cl                1.018e-01   1.018e-01
	K                 1.904e-03   1.904e-03
	Mg                9.916e-03   9.916e-03
	Na                8.738e-02   8.738e-02
	S                 2.670e-04   2.670e-04

----------------------------Description of solution----------------------------

                                       pH  =   6.796      Charge balance
                                       pe  =  11.995      Adjusted to redox equilibrium
      Specific Conductance (µS/cm,  15°C)  = 9348
                          Density (g/cm³)  =   1.00440
                               Volume (L)  =   1.00287
                        Viscosity (mPa s)  =   1.15560
                        Activity of water  =   0.996
                 Ionic strength (mol/kgw)  =   1.305e-01
                       Mass of water (kg)  =   1.000e+00
                 Total alkalinity (eq/kg)  =   1.545e-02
                       Total CO2 (mol/kg)  =   2.007e-02
                         Temperature (°C)  =  15.00
                  Electrical balance (eq)  =  -2.000e-07
 Percent error, 100*(Cat-|An|)/(Cat+|An|)  =  -0.00
                               Iterations  =   0
                                  Total H  = 1.110279e+02
                                  Total O  = 5.556289e+01

----------------------------Distribution of species----------------------------

                                               Log       Log       Log    mole V
   Species          Molality    Activity  Molality  Activity     Gamma   cm³/mol

   H+              1.957e-07   1.599e-07    -6.708    -6.796    -0.088      0.00
   OH-             3.797e-08   2.827e-08    -7.421    -7.549    -0.128     -4.20
   H2O             5.551e+01   9.962e-01     1.744    -0.002     0.000     18.03
C(-4)         0.000e+00
   CH4             0.000e+00   0.000e+00  -126.885  -126.872     0.013     34.53
C(4)          2.007e-02
   HCO3-           1.448e-02   1.125e-02    -1.839    -1.949    -0.110     24.59
   CO2             4.642e-03   4.735e-03    -2.333    -2.325     0.009     34.32
   MgHCO3+         6.042e-04   4.550e-04    -3.219    -3.342    -0.123      5.32
   NaHCO3          3.204e-04   3.353e-04    -3.494    -3.475     0.020     16.75
   MgCO3           7.450e-06   7.678e-06    -5.128    -5.115     0.013    -17.08
   CO3-2           7.270e-06   2.623e-06    -5.138    -5.581    -0.443     -4.25
   KHCO3           5.846e-06   6.025e-06    -5.233    -5.220     0.013     20.57
   CaCO3           5.810e-06   5.987e-06    -5.236    -5.223     0.013    -14.63
   (CO2)2          2.054e-07   2.095e-07    -6.687    -6.679     0.009     67.80
   CaHCO3+         2.081e-10   1.630e-10    -9.682    -9.788    -0.106      9.39
Ca            4.353e-03
   Ca+2            4.338e-03   1.596e-03    -2.363    -2.797    -0.434    -17.59
   CaSO4           9.441e-06   9.568e-06    -5.025    -5.019     0.006      6.01
   CaCO3           5.810e-06   5.987e-06    -5.236    -5.223     0.013    -14.63
   CaOH+           2.143e-09   1.650e-09    -8.669    -8.782    -0.114     (0)  
   CaHCO3+         2.081e-10   1.630e-10    -9.682    -9.788    -0.106      9.39
   CaHSO4+         1.889e-11   1.454e-11   -10.724   -10.837    -0.114     (0)  
Cl            1.018e-01
   Cl-             1.018e-01   7.643e-02    -0.992    -1.117    -0.125     17.96
   HCl             3.941e-09   4.479e-09    -8.404    -8.349     0.056     19.56
H(0)          0.000e+00
   H2              0.000e+00   0.000e+00   -40.701   -40.687     0.014     14.15
K             1.904e-03
   K+              1.897e-03   1.418e-03    -2.722    -2.848    -0.126      8.89
   KHCO3           5.846e-06   6.025e-06    -5.233    -5.220     0.013     20.57
   KSO4-           1.534e-06   1.259e-06    -5.814    -5.900    -0.086     27.21
Mg            9.916e-03
   Mg+2            9.264e-03   3.576e-03    -2.033    -2.447    -0.413    -20.74
   MgHCO3+         6.042e-04   4.550e-04    -3.219    -3.342    -0.123      5.32
   MgSO4           4.092e-05   4.345e-05    -4.388    -4.362     0.026     -1.40
   MgCO3           7.450e-06   7.678e-06    -5.128    -5.115     0.013    -17.08
   MgOH+           4.024e-08   3.178e-08    -7.395    -7.498    -0.103     (0)  
   Mg(SO4)2-2      2.563e-08   1.042e-08    -7.591    -7.982    -0.391     39.84
Na            8.738e-02
   Na+             8.702e-02   6.730e-02    -1.060    -1.172    -0.112     -1.62
   NaHCO3          3.204e-04   3.353e-04    -3.494    -3.475     0.020     16.75
   NaSO4-          4.134e-05   3.178e-05    -4.384    -4.498    -0.114     18.09
   Na2SO4          3.584e-10   3.680e-10    -9.446    -9.434     0.012     53.68
O(0)          7.139e-15
   O2              3.569e-15   3.678e-15   -14.447   -14.434     0.013     29.51
S(-2)         0.000e+00
   H2S             0.000e+00   0.000e+00  -125.882  -125.869     0.013     33.43
   HS-             0.000e+00   0.000e+00  -126.030  -126.158    -0.128     20.31
   S-2             0.000e+00   0.000e+00  -132.132  -132.587    -0.456     (0)  
   (H2S)2          0.000e+00   0.000e+00  -253.148  -253.135     0.013     30.48
S(6)          2.670e-04
   SO4-2           1.737e-04   6.009e-05    -3.760    -4.221    -0.461     13.52
   NaSO4-          4.134e-05   3.178e-05    -4.384    -4.498    -0.114     18.09
   MgSO4           4.092e-05   4.345e-05    -4.388    -4.362     0.026     -1.40
   CaSO4           9.441e-06   9.568e-06    -5.025    -5.019     0.006      6.01
   KSO4-           1.534e-06   1.259e-06    -5.814    -5.900    -0.086     27.21
   Mg(SO4)2-2      2.563e-08   1.042e-08    -7.591    -7.982    -0.391     39.84
   HSO4-           9.844e-10   7.580e-10    -9.007    -9.120    -0.114     39.73
   Na2SO4          3.584e-10   3.680e-10    -9.446    -9.434     0.012     53.68
   CaHSO4+         1.889e-11   1.454e-11   -10.724   -10.837    -0.114     (0)  

------------------------------Saturation indices-------------------------------

  Phase               SI** log IAP   log K(288 K,   1 atm)

  Anhydrite        -2.86     -7.02   -4.16  CaSO4
  Aragonite        -0.10     -8.38   -8.28  CaCO3
  Arcanite         -7.89     -9.92   -2.02  K2SO4
  Calcite          -0.00     -8.38   -8.38  CaCO3
  CH4(g)         -124.18   -126.87   -2.70  CH4
  CO2(g)           -0.98     -2.32   -1.34  CO2
  Dolomite          0.53    -16.41  -16.94  CaMg(CO3)2
  Epsomite         -4.88     -6.68   -1.80  MgSO4:7H2O
  Gypsum           -2.50     -7.02   -4.52  CaSO4:2H2O
  H2(g)           -37.61    -40.69   -3.08  H2
  H2O(g)           -1.77     -0.00    1.77  H2O
  H2S(g)         -124.99   -132.95   -7.96  H2S
  Halite           -3.85     -2.29    1.56  NaCl
  Hexahydrite      -5.10     -6.68   -1.58  MgSO4:6H2O
  Kieserite        -5.42     -6.67   -1.25  MgSO4:H2O
  Mirabilite       -5.17     -6.58   -1.42  Na2SO4:10H2O
  O2(g)           -11.62    -14.43   -2.81  O2
  Sulfur          -93.41    -88.29    5.12  S
  Sylvite          -4.81     -3.96    0.85  KCl
  Thenardite       -7.35     -6.57    0.78  Na2SO4

**For a gas, SI = log10(fugacity). Fugacity = pressure * phi / 1 atm.
  For ideal gases, phi = 1.

------------------
End of simulation.
------------------

------------------------------------
Reading input data for simulation 6.
------------------------------------

	PRINT
	 reset false
WARNING: Cell-lengths were read for 1 cells. Last value is used till cell 11.
WARNING: Dispersivities were read for 1 cells. Last value is used till cell 11.

Calculating transport: 11 (mobile) cells, 70 shifts, 2 mixruns...

