WARNING: Database file from DATABASE keyword is used; command line argument ignored.
   Input file: ball
  Output file: ball.out
Database file: ../database/phreeqc.dat

------------------
Reading data base.
------------------

	SOLUTION_MASTER_SPECIES
	SOLUTION_SPECIES
	PHASES
	GAS_BINARY_PARAMETERS
	EXCHANGE_MASTER_SPECIES
	EXCHANGE_SPECIES
	SURFACE_MASTER_SPECIES
	SURFACE_SPECIES
	MEAN_GAMMAS
	RATES
	END
------------------------------------
Reading input data for simulation 1.
------------------------------------

	DATABASE ../database/phreeqc.dat
	SELECTED_OUTPUT 101
	    file                 ball_101.sel
	USER_PUNCH 101
	    headings Mu SC
	    start
	10 PUNCH STR_F$(MU, 20, 12)
	20 PUNCH STR_F$(SC, 20, 10)
	    end
	TITLE Test solubility of Cd in synthetic stream water.
	SOLUTION 1  Synthetic stream water
	        units      mmol/kgw
	        pH         7.20
		pe	12
	        temp       25.0
	        C               0.53
	        Ca              0.14
	        Cl              0.17
	        K               0.02
	        Mg              0.08
	        Na              0.29
	        S(6)            0.03 as SO4
	end
-----
TITLE
-----

 Test solubility of Cd in synthetic stream water.

-------------------------------------------
Beginning of initial solution calculations.
-------------------------------------------

Initial solution 1.	Synthetic stream water

-----------------------------Solution composition------------------------------

	Elements           Molality       Moles

	C                 5.300e-04   5.300e-04
	Ca                1.400e-04   1.400e-04
	Cl                1.700e-04   1.700e-04
	K                 2.000e-05   2.000e-05
	Mg                8.000e-05   8.000e-05
	Na                2.900e-04   2.900e-04
	S(6)              3.000e-05   3.000e-05

----------------------------Description of solution----------------------------

                                       pH  =   7.200    
                                       pe  =  12.000    
      Specific Conductance (µS/cm,  25°C)  = 78
                          Density (g/cm³)  =   0.99709
                               Volume (L)  =   1.00298
                        Viscosity (mPa s)  =   0.89049
                        Activity of water  =   1.000
                 Ionic strength (mol/kgw)  =   9.691e-04
                       Mass of water (kg)  =   1.000e+00
                 Total alkalinity (eq/kg)  =   4.668e-04
                       Total CO2 (mol/kg)  =   5.300e-04
                         Temperature (°C)  =  25.00
                  Electrical balance (eq)  =   5.318e-05
 Percent error, 100*(Cat-|An|)/(Cat+|An|)  =   3.69
                               Iterations  =   8
                                  Total H  = 1.110129e+02
                                  Total O  = 5.550786e+01

----------------------------Distribution of species----------------------------

                                               Log       Log       Log    mole V
   Species          Molality    Activity  Molality  Activity     Gamma   cm³/mol

   OH-             1.662e-07   1.604e-07    -6.779    -6.795    -0.015     -4.11
   H+              6.524e-08   6.310e-08    -7.185    -7.200    -0.015      0.00
   H2O             5.551e+01   1.000e+00     1.744    -0.000     0.000     18.07
C(-4)         0.000e+00
   CH4             0.000e+00   0.000e+00  -133.405  -133.405     0.000     35.46
C(4)          5.300e-04
   HCO3-           4.653e-04   4.495e-04    -3.332    -3.347    -0.015     24.56
   CO2             6.376e-05   6.377e-05    -4.195    -4.195     0.000     34.79
   CO3-2           3.838e-07   3.341e-07    -6.416    -6.476    -0.060     -4.68
   MgHCO3+         3.755e-07   3.626e-07    -6.425    -6.441    -0.015      5.48
   CaCO3           6.814e-08   6.815e-08    -7.167    -7.167     0.000    -14.60
   NaHCO3          6.217e-08   6.219e-08    -7.206    -7.206     0.000     17.66
   MgCO3           2.197e-08   2.198e-08    -7.658    -7.658     0.000    -17.09
   KHCO3           3.873e-09   3.874e-09    -8.412    -8.412     0.000     21.42
   (CO2)2          6.610e-11   6.610e-11   -10.180   -10.180     0.000     68.75
   CaHCO3+         4.953e-12   4.785e-12   -11.305   -11.320    -0.015      9.67
Ca            1.400e-04
   Ca+2            1.395e-04   1.214e-04    -3.855    -3.916    -0.060    -18.14
   CaSO4           4.280e-07   4.280e-07    -6.369    -6.369     0.000      7.22
   CaCO3           6.814e-08   6.815e-08    -7.167    -7.167     0.000    -14.60
   CaOH+           3.308e-10   3.194e-10    -9.480    -9.496    -0.015     (0)  
   CaHCO3+         4.953e-12   4.785e-12   -11.305   -11.320    -0.015      9.67
   CaHSO4+         2.344e-13   2.263e-13   -12.630   -12.645    -0.015     (0)  
Cl            1.700e-04
   Cl-             1.700e-04   1.641e-04    -3.770    -3.785    -0.015     18.07
   HCl             3.564e-12   3.567e-12   -11.448   -11.448     0.000     20.36
H(0)          0.000e+00
   H2              0.000e+00   0.000e+00   -41.550   -41.550     0.000     14.99
K             2.000e-05
   K+              1.999e-05   1.930e-05    -4.699    -4.715    -0.015      9.01
   KSO4-           7.677e-09   7.419e-09    -8.115    -8.130    -0.015     18.31
   KHCO3           3.873e-09   3.874e-09    -8.412    -8.412     0.000     21.42
Mg            8.000e-05
   Mg+2            7.914e-05   6.894e-05    -4.102    -4.162    -0.060    -21.83
   MgSO4           4.559e-07   4.561e-07    -6.341    -6.341     0.000     -0.40
   MgHCO3+         3.755e-07   3.626e-07    -6.425    -6.441    -0.015      5.48
   MgCO3           2.197e-08   2.198e-08    -7.658    -7.658     0.000    -17.09
   MgOH+           4.105e-09   3.967e-09    -8.387    -8.402    -0.015     (0)  
   Mg(SO4)2-2      4.351e-11   3.796e-11   -10.361   -10.421    -0.059     33.84
Na            2.900e-04
   Na+             2.899e-04   2.799e-04    -3.538    -3.553    -0.015     -1.48
   NaSO4-          6.436e-08   6.214e-08    -7.191    -7.207    -0.015     16.59
   NaHCO3          6.217e-08   6.219e-08    -7.206    -7.206     0.000     17.66
   Na2SO4          8.480e-15   8.481e-15   -14.072   -14.072     0.000     47.96
O(0)          1.092e-09
   O2              5.462e-10   5.463e-10    -9.263    -9.263     0.000     30.40
S(6)          3.000e-05
   SO4-2           2.904e-05   2.527e-05    -4.537    -4.597    -0.060     14.53
   MgSO4           4.559e-07   4.561e-07    -6.341    -6.341     0.000     -0.40
   CaSO4           4.280e-07   4.280e-07    -6.369    -6.369     0.000      7.22
   NaSO4-          6.436e-08   6.214e-08    -7.191    -7.207    -0.015     16.59
   KSO4-           7.677e-09   7.419e-09    -8.115    -8.130    -0.015     18.31
   HSO4-           1.606e-10   1.550e-10    -9.794    -9.810    -0.015     40.28
   Mg(SO4)2-2      4.351e-11   3.796e-11   -10.361   -10.421    -0.059     33.84
   CaHSO4+         2.344e-13   2.263e-13   -12.630   -12.645    -0.015     (0)  
   Na2SO4          8.480e-15   8.481e-15   -14.072   -14.072     0.000     47.96

------------------------------Saturation indices-------------------------------

  Phase               SI** log IAP   log K(298 K,   1 atm)

  Anhydrite        -4.20     -8.51   -4.31  CaSO4
  Aragonite        -2.06    -10.39   -8.34  CaCO3
  Arcanite        -12.15    -14.03   -1.88  K2SO4
  Calcite          -1.94    -10.39   -8.45  CaCO3
  CH4(g)         -130.60   -133.41   -2.80  CH4
  CO2(g)           -2.73     -4.20   -1.47  CO2
  Dolomite         -3.95    -21.03  -17.08  CaMg(CO3)2
  Epsomite         -7.02     -8.76   -1.74  MgSO4:7H2O
  Gypsum           -3.96     -8.51   -4.55  CaSO4:2H2O
  H2(g)           -38.45    -41.55   -3.10  H2
  H2O(g)           -1.50     -0.00    1.50  H2O
  Halite           -8.91     -7.34    1.57  NaCl
  Hexahydrite      -7.19     -8.76   -1.57  MgSO4:6H2O
  Kieserite        -7.60     -8.76   -1.16  MgSO4:H2O
  Mirabilite      -11.00    -11.70   -0.71  Na2SO4:10H2O
  O2(g)            -6.37     -9.26   -2.89  O2
  Sylvite          -9.40     -8.50    0.90  KCl
  Thenardite      -12.35    -11.70    0.65  Na2SO4

**For a gas, SI = log10(fugacity). Fugacity = pressure * phi / 1 atm.
  For ideal gases, phi = 1.

------------------
End of simulation.
------------------

------------------------------------
Reading input data for simulation 2.
------------------------------------

	knobs
		logfile
	use solution 1
	EQUILIBRIUM_PHASES 1  Diss. Cd(NO3)2 to equil. w/otavite
	Otavite          0.0     Cd(NO3)2    0.0089
	END
-----------------------------------------
Beginning of batch-reaction calculations.
-----------------------------------------

Reaction step 1.

Using solution 1.	Synthetic stream water
Using pure phase assemblage 1.	Diss. Cd(NO3)2 to equil. w/otavite

-------------------------------Phase assemblage--------------------------------

                                                      Moles in assemblage
Phase               SI  log IAP  log K(T, P)   Initial       Final       Delta

Otavite           0.00   -12.10    -12.10
	 Cd(NO3)2           is reactant       8.900e-03   8.897e-03  -2.818e-06

-----------------------------Solution composition------------------------------

	Elements           Molality       Moles

	C                 5.300e-04   5.300e-04
	Ca                1.400e-04   1.400e-04
	Cd                2.818e-06   2.818e-06
	Cl                1.700e-04   1.700e-04
	K                 2.000e-05   2.000e-05
	Mg                8.000e-05   8.000e-05
	N                 5.635e-06   5.635e-06
	Na                2.900e-04   2.900e-04
	S                 3.000e-05   3.000e-05

----------------------------Description of solution----------------------------

                                       pH  =   7.200      Charge balance
                                       pe  =  12.030      Adjusted to redox equilibrium
      Specific Conductance (µS/cm,  25°C)  = 78
                          Density (g/cm³)  =   0.99709
                               Volume (L)  =   1.00298
                        Viscosity (mPa s)  =   0.89049
                        Activity of water  =   1.000
                 Ionic strength (mol/kgw)  =   9.774e-04
                       Mass of water (kg)  =   1.000e+00
                 Total alkalinity (eq/kg)  =   4.668e-04
                       Total CO2 (mol/kg)  =   5.300e-04
                         Temperature (°C)  =  25.00
                  Electrical balance (eq)  =   5.318e-05
 Percent error, 100*(Cat-|An|)/(Cat+|An|)  =   3.66
                               Iterations  =  12
                                  Total H  = 1.110129e+02
                                  Total O  = 5.550788e+01

----------------------------Distribution of species----------------------------

                                               Log       Log       Log    mole V
   Species          Molality    Activity  Molality  Activity     Gamma   cm³/mol

   OH-             1.662e-07   1.604e-07    -6.779    -6.795    -0.015     -4.11
   H+              6.527e-08   6.311e-08    -7.185    -7.200    -0.015      0.00
   H2O             5.551e+01   1.000e+00     1.744    -0.000     0.000     18.07
C(-4)         0.000e+00
   CH4             0.000e+00   0.000e+00  -133.648  -133.648     0.000     35.46
C(4)          5.300e-04
   HCO3-           4.653e-04   4.494e-04    -3.332    -3.347    -0.015     24.56
   CO2             6.376e-05   6.377e-05    -4.195    -4.195     0.000     34.79
   CO3-2           3.838e-07   3.339e-07    -6.416    -6.476    -0.060     -4.68
   MgHCO3+         3.753e-07   3.623e-07    -6.426    -6.441    -0.015      5.48
   CaCO3           6.806e-08   6.808e-08    -7.167    -7.167     0.000    -14.60
   NaHCO3          6.215e-08   6.217e-08    -7.207    -7.206     0.000     17.66
   CdHCO3+         3.502e-08   3.380e-08    -7.456    -7.471    -0.015     (0)  
   MgCO3           2.195e-08   2.196e-08    -7.659    -7.658     0.000    -17.09
   KHCO3           3.872e-09   3.873e-09    -8.412    -8.412     0.000     21.42
   CdCO3           6.308e-10   6.310e-10    -9.200    -9.200     0.000     (0)  
   (CO2)2          6.610e-11   6.611e-11   -10.180   -10.180     0.000     68.75
   CaHCO3+         4.950e-12   4.782e-12   -11.305   -11.320    -0.015      9.67
   Cd(CO3)2-2      7.672e-13   6.663e-13   -12.115   -12.176    -0.061     (0)  
Ca            1.400e-04
   Ca+2            1.395e-04   1.214e-04    -3.855    -3.916    -0.061    -18.14
   CaSO4           4.275e-07   4.275e-07    -6.369    -6.369     0.000      7.22
   CaCO3           6.806e-08   6.808e-08    -7.167    -7.167     0.000    -14.60
   CaOH+           3.306e-10   3.191e-10    -9.481    -9.496    -0.015     (0)  
   CaHCO3+         4.950e-12   4.782e-12   -11.305   -11.320    -0.015      9.67
   CaHSO4+         2.342e-13   2.261e-13   -12.630   -12.646    -0.015     (0)  
Cd            2.818e-06
   Cd+2            2.739e-06   2.379e-06    -5.562    -5.624    -0.061    -18.75
   CdCl+           3.861e-08   3.727e-08    -7.413    -7.429    -0.015      5.83
   CdHCO3+         3.502e-08   3.380e-08    -7.456    -7.471    -0.015     (0)  
   CdOH+           3.247e-09   3.135e-09    -8.488    -8.504    -0.015     (0)  
   CdCO3           6.308e-10   6.310e-10    -9.200    -9.200     0.000     (0)  
   CdSO4           6.232e-10   6.233e-10    -9.205    -9.205     0.000     18.12
   CdOHCl          2.438e-10   2.439e-10    -9.613    -9.613     0.000     (0)  
   CdNO3+          3.366e-11   3.249e-11   -10.473   -10.488    -0.015     17.52
   CdCl2           2.548e-11   2.549e-11   -10.594   -10.594     0.000     23.14
   Cd(OH)2         2.667e-12   2.667e-12   -11.574   -11.574     0.000     (0)  
   Cd(SO4)2-2      8.506e-13   7.397e-13   -12.070   -12.131    -0.061     36.65
   Cd(CO3)2-2      7.672e-13   6.663e-13   -12.115   -12.176    -0.061     (0)  
   Cd2OH+3         5.016e-14   3.652e-14   -13.300   -13.437    -0.138     (0)  
   CdCl3-          2.733e-15   2.638e-15   -14.563   -14.579    -0.015     69.32
   Cd(OH)3-        4.912e-18   4.742e-18   -17.309   -17.324    -0.015     (0)  
   Cd(OH)4-2       7.710e-25   6.696e-25   -24.113   -24.174    -0.061     (0)  
   CdHS+           0.000e+00   0.000e+00  -127.428  -127.444    -0.015     (0)  
   Cd(HS)2         0.000e+00   0.000e+00  -253.074  -253.074     0.000     (0)  
   Cd(HS)3-        0.000e+00   0.000e+00  -382.869  -382.884    -0.015     (0)  
   Cd(HS)4-2       0.000e+00   0.000e+00  -512.623  -512.684    -0.061     (0)  
Cl            1.700e-04
   Cl-             1.700e-04   1.641e-04    -3.770    -3.785    -0.015     18.07
   CdCl+           3.861e-08   3.727e-08    -7.413    -7.429    -0.015      5.83
   CdOHCl          2.438e-10   2.439e-10    -9.613    -9.613     0.000     (0)  
   CdCl2           2.548e-11   2.549e-11   -10.594   -10.594     0.000     23.14
   HCl             3.563e-12   3.567e-12   -11.448   -11.448     0.000     20.36
   CdCl3-          2.733e-15   2.638e-15   -14.563   -14.579    -0.015     69.32
H(0)          0.000e+00
   H2              0.000e+00   0.000e+00   -41.611   -41.611     0.000     14.99
K             2.000e-05
   K+              1.999e-05   1.929e-05    -4.699    -4.715    -0.015      9.01
   KSO4-           7.673e-09   7.414e-09    -8.115    -8.130    -0.015     18.32
   KHCO3           3.872e-09   3.873e-09    -8.412    -8.412     0.000     21.42
Mg            8.000e-05
   Mg+2            7.914e-05   6.890e-05    -4.102    -4.162    -0.060    -21.82
   MgSO4           4.554e-07   4.556e-07    -6.342    -6.341     0.000     -0.40
   MgHCO3+         3.753e-07   3.623e-07    -6.426    -6.441    -0.015      5.48
   MgCO3           2.195e-08   2.196e-08    -7.659    -7.658     0.000    -17.09
   MgOH+           4.103e-09   3.964e-09    -8.387    -8.402    -0.015     (0)  
   Mg(SO4)2-2      4.346e-11   3.790e-11   -10.362   -10.421    -0.059     33.86
N(-3)         0.000e+00
   NH4+            0.000e+00   0.000e+00   -54.414   -54.430    -0.016     17.89
   NH3             0.000e+00   0.000e+00   -56.474   -56.474     0.000     24.42
   NH4SO4-         0.000e+00   0.000e+00   -57.660   -57.675    -0.015     33.27
N(0)          1.408e-10
   N2              7.042e-11   7.043e-11   -10.152   -10.152     0.000     29.29
N(3)          7.248e-16
   NO2-            7.248e-16   6.994e-16   -15.140   -15.155    -0.015     24.97
N(5)          5.635e-06
   NO3-            5.635e-06   5.438e-06    -5.249    -5.265    -0.015     29.49
   CdNO3+          3.366e-11   3.249e-11   -10.473   -10.488    -0.015     17.52
Na            2.900e-04
   Na+             2.899e-04   2.799e-04    -3.538    -3.553    -0.015     -1.48
   NaSO4-          6.432e-08   6.210e-08    -7.192    -7.207    -0.015     16.59
   NaHCO3          6.215e-08   6.217e-08    -7.207    -7.206     0.000     17.66
   Na2SO4          8.473e-15   8.474e-15   -14.072   -14.072     0.000     47.96
O(0)          1.444e-09
   O2              7.222e-10   7.224e-10    -9.141    -9.141     0.000     30.40
S(-2)         0.000e+00
   CdHS+           0.000e+00   0.000e+00  -127.428  -127.444    -0.015     (0)  
   HS-             0.000e+00   0.000e+00  -131.975  -131.990    -0.015     20.60
   H2S             0.000e+00   0.000e+00  -132.248  -132.248     0.000     36.27
   S-2             0.000e+00   0.000e+00  -137.648  -137.708    -0.061     (0)  
   Cd(HS)2         0.000e+00   0.000e+00  -253.074  -253.074     0.000     (0)  
   (H2S)2          0.000e+00   0.000e+00  -265.775  -265.775     0.000     30.09
   Cd(HS)3-        0.000e+00   0.000e+00  -382.869  -382.884    -0.015     (0)  
   Cd(HS)4-2       0.000e+00   0.000e+00  -512.623  -512.684    -0.061     (0)  
S(6)          3.000e-05
   SO4-2           2.904e-05   2.526e-05    -4.537    -4.598    -0.061     14.53
   MgSO4           4.554e-07   4.556e-07    -6.342    -6.341     0.000     -0.40
   CaSO4           4.275e-07   4.275e-07    -6.369    -6.369     0.000      7.22
   NaSO4-          6.432e-08   6.210e-08    -7.192    -7.207    -0.015     16.59
   KSO4-           7.673e-09   7.414e-09    -8.115    -8.130    -0.015     18.32
   CdSO4           6.232e-10   6.233e-10    -9.205    -9.205     0.000     18.12
   HSO4-           1.605e-10   1.550e-10    -9.794    -9.810    -0.015     40.28
   Mg(SO4)2-2      4.346e-11   3.790e-11   -10.362   -10.421    -0.059     33.86
   Cd(SO4)2-2      8.506e-13   7.397e-13   -12.070   -12.131    -0.061     36.65
   CaHSO4+         2.342e-13   2.261e-13   -12.630   -12.646    -0.015     (0)  
   Na2SO4          8.473e-15   8.474e-15   -14.072   -14.072     0.000     47.96
   NH4SO4-         0.000e+00   0.000e+00   -57.660   -57.675    -0.015     33.27

------------------------------Saturation indices-------------------------------

  Phase               SI** log IAP   log K(298 K,   1 atm)

  Anhydrite        -4.20     -8.51   -4.31  CaSO4
  Aragonite        -2.06    -10.39   -8.34  CaCO3
  Arcanite        -12.15    -14.03   -1.88  K2SO4
  Calcite          -1.94    -10.39   -8.45  CaCO3
  Cd(OH)2          -4.87      8.78   13.65  Cd(OH)2
  CdSO4           -10.12    -10.22   -0.10  CdSO4
  CH4(g)         -130.85   -133.65   -2.80  CH4
  CO2(g)           -2.73     -4.20   -1.47  CO2
  Dolomite         -3.95    -21.03  -17.08  CaMg(CO3)2
  Epsomite         -7.02     -8.76   -1.74  MgSO4:7H2O
  Gypsum           -3.96     -8.51   -4.55  CaSO4:2H2O
  H2(g)           -38.51    -41.61   -3.10  H2
  H2O(g)           -1.50     -0.00    1.50  H2O
  H2S(g)         -131.25   -139.19   -7.94  H2S
  Halite           -8.91     -7.34    1.57  NaCl
  Hexahydrite      -7.19     -8.76   -1.57  MgSO4:6H2O
  Kieserite        -7.60     -8.76   -1.16  MgSO4:H2O
  Mirabilite      -11.00    -11.70   -0.71  Na2SO4:10H2O
  N2(g)            -6.98    -10.15   -3.18  N2
  NH3(g)          -58.27    -56.47    1.80  NH3
  O2(g)            -6.25     -9.14   -2.89  O2
  Otavite           0.00    -12.10  -12.10  CdCO3
  Sulfur          -98.67    -93.79    4.88  S
  Sylvite          -9.40     -8.50    0.90  KCl
  Thenardite      -12.35    -11.70    0.65  Na2SO4

**For a gas, SI = log10(fugacity). Fugacity = pressure * phi / 1 atm.
  For ideal gases, phi = 1.

------------------
End of simulation.
------------------

------------------------------------
Reading input data for simulation 3.
------------------------------------

