WARNING: Database file from DATABASE keyword is used; command line argument ignored.
   Input file: Barite_tc
  Output file: Barite_tc.out
Database file: ../database/phreeqc.dat

------------------
Reading data base.
------------------

	SOLUTION_MASTER_SPECIES
	SOLUTION_SPECIES
	PHASES
	GAS_BINARY_PARAMETERS
	EXCHANGE_MASTER_SPECIES
	EXCHANGE_SPECIES
	SURFACE_MASTER_SPECIES
	SURFACE_SPECIES
	MEAN_GAMMAS
	RATES
	END
------------------------------------
Reading input data for simulation 1.
------------------------------------

	DATABASE ../database/phreeqc.dat
	SELECTED_OUTPUT 101
	    file                 Barite_tc_101.sel
	USER_PUNCH 101
	    headings Mu SC
	    start
	10 PUNCH STR_F$(MU, 20, 12)
	20 PUNCH STR_F$(SC, 20, 10)
	    end
	SOLUTION 1
	 pH 7 charge
	 temp 50
	 pressure 493
	EQUILIBRIUM_PHASES
	 Barite
	REACTION_TEMPERATURE
	 25 250 in 15
	USER_GRAPH
	 -plot_csv barite_tc.dat
	 -axis_scale y_axis 10e-6 30e-6
	 -chart_title "Barite solubility at 500 bar"
	 axis_titles "Temperature / oC" "Barite solubility / M"
	 10 plot_xy tc, tot("Ba"), color = Red, symbol = None
	END
-------------------------------------------
Beginning of initial solution calculations.
-------------------------------------------

Initial solution 1.	

-----------------------------Solution composition------------------------------

	Elements           Molality       Moles

	Pure water     

----------------------------Description of solution----------------------------

                                       pH  =   6.542      Charge balance
                                       pe  =   4.000    
      Specific Conductance (µS/cm,  50°C)  = 0
                          Density (g/cm³)  =   1.00857
                               Volume (L)  =   0.99150
                        Viscosity (mPa s)  =   0.55730
                        Activity of water  =   1.000
                 Ionic strength (mol/kgw)  =   2.875e-07
                       Mass of water (kg)  =   1.000e+00
                 Total alkalinity (eq/kg)  =  -5.163e-17
                         Temperature (°C)  =  50.00
                           Pressure (atm)  = 493.00
                  Electrical balance (eq)  =   5.163e-17
 Percent error, 100*(Cat-|An|)/(Cat+|An|)  =   0.00
                               Iterations  =   4
                                  Total H  = 1.110124e+02
                                  Total O  = 5.550622e+01

----------------------------Distribution of species----------------------------

                                               Log       Log       Log    mole V
   Species          Molality    Activity  Molality  Activity     Gamma   cm³/mol

   H+              2.875e-07   2.873e-07    -6.541    -6.542    -0.000      0.00
   OH-             2.875e-07   2.873e-07    -6.541    -6.542    -0.000     -4.28
   H2O             5.551e+01   1.000e+00     1.744    -0.000     0.000     17.86
H(0)          6.864e-25
   H2              3.432e-25   3.432e-25   -24.464   -24.464     0.000     16.31
O(0)          1.614e-36
   O2              8.068e-37   8.068e-37   -36.093   -36.093     0.000     30.96

------------------------------Saturation indices-------------------------------

  Phase               SI** log IAP   log K(323 K, 493 atm)

  H2(g)           -21.21    -24.46   -3.26  H2
  H2O(g)           -0.77     -0.00    0.77  H2O
  O2(g)           -32.81    -36.09   -3.28  O2

**For a gas, SI = log10(fugacity). Fugacity = pressure * phi / 1 atm.
  For ideal gases, phi = 1.

-----------------------------------------
Beginning of batch-reaction calculations.
-----------------------------------------

Reaction step 1.

Using solution 1.	
Using pure phase assemblage 1.	
Using temperature 1.	

-------------------------------Phase assemblage--------------------------------

                                                      Moles in assemblage
Phase               SI  log IAP  log K(T, P)   Initial       Final       Delta

Barite           -0.00    -9.50     -9.50    1.000e+01   1.000e+01  -1.854e-05

-----------------------------Solution composition------------------------------

	Elements           Molality       Moles

	Ba                1.854e-05   1.854e-05
	S                 1.854e-05   1.854e-05

----------------------------Description of solution----------------------------

                                       pH  =   6.909      Charge balance
                                       pe  =  -1.475      Adjusted to redox equilibrium
      Specific Conductance (µS/cm,  25°C)  = 5
                          Density (g/cm³)  =   1.01844
                               Volume (L)  =   0.98190
                        Viscosity (mPa s)  =   0.88733
                        Activity of water  =   1.000
                 Ionic strength (mol/kgw)  =   7.429e-05
                       Mass of water (kg)  =   1.000e+00
                 Total alkalinity (eq/kg)  =  -4.208e-17
                         Temperature (°C)  =  25.00
                           Pressure (atm)  = 493.00
                  Electrical balance (eq)  =  -7.177e-17
 Percent error, 100*(Cat-|An|)/(Cat+|An|)  =  -0.00
                               Iterations  =  11
                                  Total H  = 1.110124e+02
                                  Total O  = 5.550629e+01

----------------------------Distribution of species----------------------------

                                               Log       Log       Log    mole V
   Species          Molality    Activity  Molality  Activity     Gamma   cm³/mol

   OH-             1.246e-07   1.234e-07    -6.905    -6.909    -0.004     -2.54
   H+              1.244e-07   1.232e-07    -6.905    -6.909    -0.004      0.00
   H2O             5.551e+01   1.000e+00     1.744    -0.000     0.000     17.69
Ba            1.854e-05
   Ba+2            1.854e-05   1.784e-05    -4.732    -4.749    -0.017    -10.12
   BaOH+           5.766e-12   5.710e-12   -11.239   -11.243    -0.004     (0)  
H(0)          1.409e-14
   H2              7.047e-15   7.047e-15   -14.152   -14.152     0.000     15.28
O(0)          0.000e+00
   O2              0.000e+00   0.000e+00   -64.276   -64.276     0.000     29.77
S(-2)         1.422e-22
   HS-             7.639e-23   7.565e-23   -22.117   -22.121    -0.004     20.79
   H2S             6.578e-23   6.578e-23   -22.182   -22.182     0.000     31.45
   S-2             1.171e-28   1.126e-28   -27.931   -27.948    -0.017     (0)  
   (H2S)2          0.000e+00   0.000e+00   -45.524   -45.524     0.000     49.42
S(6)          1.854e-05
   SO4-2           1.854e-05   1.783e-05    -4.732    -4.749    -0.017     18.42
   HSO4-           1.416e-10   1.402e-10    -9.849    -9.853    -0.004     39.35

------------------------------Saturation indices-------------------------------

  Phase               SI** log IAP   log K(298 K, 493 atm)

  Barite           -0.00     -9.50   -9.50  BaSO4
  H2(g)           -10.92    -14.15   -3.23  H2
  H2O(g)           -1.35     -0.00    1.35  H2O
  H2S(g)          -20.91    -29.03   -8.12  H2S
  O2(g)           -61.12    -64.28   -3.15  O2
  Sulfur          -15.92    -11.31    4.61  S

**For a gas, SI = log10(fugacity). Fugacity = pressure * phi / 1 atm.
  For ideal gases, phi = 1.

Reaction step 2.

Using solution 1.	
Using pure phase assemblage 1.	
Using temperature 1.	

-------------------------------Phase assemblage--------------------------------

                                                      Moles in assemblage
Phase               SI  log IAP  log K(T, P)   Initial       Final       Delta

Barite           -0.00    -9.37     -9.37    1.000e+01   1.000e+01  -2.146e-05

-----------------------------Solution composition------------------------------

	Elements           Molality       Moles

	Ba                2.146e-05   2.146e-05
	S                 2.146e-05   2.146e-05

----------------------------Description of solution----------------------------

                                       pH  =   6.663      Charge balance
                                       pe  =  -1.261      Adjusted to redox equilibrium
      Specific Conductance (µS/cm,  41°C)  = 8
                          Density (g/cm³)  =   1.01249
                               Volume (L)  =   0.98767
                        Viscosity (mPa s)  =   0.64814
                        Activity of water  =   1.000
                 Ionic strength (mol/kgw)  =   8.607e-05
                       Mass of water (kg)  =   1.000e+00
                 Total alkalinity (eq/kg)  =  -4.609e-17
                         Temperature (°C)  =  41.07
                           Pressure (atm)  = 493.00
                  Electrical balance (eq)  =  -4.880e-17
 Percent error, 100*(Cat-|An|)/(Cat+|An|)  =  -0.00
                               Iterations  =  11
                                  Total H  = 1.110124e+02
                                  Total O  = 5.550630e+01

----------------------------Distribution of species----------------------------

                                               Log       Log       Log    mole V
   Species          Molality    Activity  Molality  Activity     Gamma   cm³/mol

   OH-             2.201e-07   2.177e-07    -6.657    -6.662    -0.005     -3.68
   H+              2.196e-07   2.173e-07    -6.658    -6.663    -0.005      0.00
   H2O             5.551e+01   1.000e+00     1.744    -0.000     0.000     17.79
Ba            2.146e-05
   Ba+2            2.146e-05   2.056e-05    -4.668    -4.687    -0.019     -9.44
   BaOH+           3.801e-12   3.761e-12   -11.420   -11.425    -0.005     (0)  
H(0)          1.409e-14
   H2              7.047e-15   7.047e-15   -14.152   -14.152     0.000     15.99
O(0)          0.000e+00
   O2              0.000e+00   0.000e+00   -59.258   -59.258     0.000     30.60
S(-2)         3.336e-24
   HS-             1.693e-24   1.675e-24   -23.771   -23.776    -0.005     21.12
   H2S             1.642e-24   1.642e-24   -23.785   -23.785     0.000     34.18
   S-2             4.134e-30   3.959e-30   -29.384   -29.402    -0.019     (0)  
   (H2S)2          0.000e+00   0.000e+00   -48.530   -48.530     0.000     48.79
S(6)          2.146e-05
   SO4-2           2.146e-05   2.056e-05    -4.668    -4.687    -0.019     19.04
   HSO4-           4.272e-10   4.226e-10    -9.369    -9.374    -0.005     39.96

------------------------------Saturation indices-------------------------------

  Phase               SI** log IAP   log K(314 K, 493 atm)

  Barite           -0.00     -9.37   -9.37  BaSO4
  H2(g)           -10.90    -14.15   -3.25  H2
  H2O(g)           -0.97     -0.00    0.97  H2O
  H2S(g)          -22.35    -30.44   -8.09  H2S
  O2(g)           -56.01    -59.26   -3.24  O2
  Sulfur          -17.22    -12.98    4.24  S

**For a gas, SI = log10(fugacity). Fugacity = pressure * phi / 1 atm.
  For ideal gases, phi = 1.

Reaction step 3.

Using solution 1.	
Using pure phase assemblage 1.	
Using temperature 1.	

-------------------------------Phase assemblage--------------------------------

                                                      Moles in assemblage
Phase               SI  log IAP  log K(T, P)   Initial       Final       Delta

Barite            0.00    -9.29     -9.29    1.000e+01   1.000e+01  -2.371e-05

-----------------------------Solution composition------------------------------

	Elements           Molality       Moles

	Ba                2.371e-05   2.371e-05
	S                 2.371e-05   2.371e-05

----------------------------Description of solution----------------------------

                                       pH  =   6.453      Charge balance
                                       pe  =  -1.080      Adjusted to redox equilibrium
      Specific Conductance (µS/cm,  57°C)  = 12
                          Density (g/cm³)  =   1.00517
                               Volume (L)  =   0.99486
                        Viscosity (mPa s)  =   0.49898
                        Activity of water  =   1.000
                 Ionic strength (mol/kgw)  =   9.521e-05
                       Mass of water (kg)  =   1.000e+00
                 Total alkalinity (eq/kg)  =  -6.511e-17
                         Temperature (°C)  =  57.14
                           Pressure (atm)  = 493.00
                  Electrical balance (eq)  =   6.793e-17
 Percent error, 100*(Cat-|An|)/(Cat+|An|)  =   0.00
                               Iterations  =  11
                                  Total H  = 1.110124e+02
                                  Total O  = 5.550631e+01

----------------------------Distribution of species----------------------------

                                               Log       Log       Log    mole V
   Species          Molality    Activity  Molality  Activity     Gamma   cm³/mol

   OH-             3.576e-07   3.534e-07    -6.447    -6.452    -0.005     -4.73
   H+              3.565e-07   3.524e-07    -6.448    -6.453    -0.005      0.00
   H2O             5.551e+01   1.000e+00     1.744    -0.000     0.000     17.92
Ba            2.371e-05
   Ba+2            2.371e-05   2.264e-05    -4.625    -4.645    -0.020     -9.03
   BaOH+           2.589e-12   2.558e-12   -11.587   -11.592    -0.005     (0)  
H(0)          1.409e-14
   H2              7.047e-15   7.047e-15   -14.152   -14.152     0.000     16.54
O(0)          0.000e+00
   O2              0.000e+00   0.000e+00   -54.805   -54.805     0.000     31.22
S(-2)         1.077e-25
   H2S             5.767e-26   5.767e-26   -25.239   -25.239     0.000     36.14
   HS-             4.999e-26   4.941e-26   -25.301   -25.306    -0.005     21.15
   S-2             1.901e-31   1.814e-31   -30.721   -30.741    -0.020     (0)  
   (H2S)2          0.000e+00   0.000e+00   -51.292   -51.292     0.000     47.98
S(6)          2.371e-05
   SO4-2           2.371e-05   2.263e-05    -4.625    -4.645    -0.020     18.86
   HSO4-           1.162e-09   1.148e-09    -8.935    -8.940    -0.005     40.22

------------------------------Saturation indices-------------------------------

  Phase               SI** log IAP   log K(330 K, 493 atm)

  Barite            0.00     -9.29   -9.29  BaSO4
  H2(g)           -10.89    -14.15   -3.26  H2
  H2O(g)           -0.63     -0.00    0.63  H2O
  H2S(g)          -23.68    -31.76   -8.08  H2S
  O2(g)           -51.50    -54.80   -3.30  O2
  Sulfur          -18.41    -14.49    3.92  S

**For a gas, SI = log10(fugacity). Fugacity = pressure * phi / 1 atm.
  For ideal gases, phi = 1.

Reaction step 4.

Using solution 1.	
Using pure phase assemblage 1.	
Using temperature 1.	

-------------------------------Phase assemblage--------------------------------

                                                      Moles in assemblage
Phase               SI  log IAP  log K(T, P)   Initial       Final       Delta

Barite            0.00    -9.24     -9.24    1.000e+01   1.000e+01  -2.507e-05

-----------------------------Solution composition------------------------------

	Elements           Molality       Moles

	Ba                2.507e-05   2.507e-05
	S                 2.507e-05   2.507e-05

----------------------------Description of solution----------------------------

                                       pH  =   6.274      Charge balance
                                       pe  =  -0.926      Adjusted to redox equilibrium
      Specific Conductance (µS/cm,  73°C)  = 15
                          Density (g/cm³)  =   0.99670
                               Volume (L)  =   1.00331
                        Viscosity (mPa s)  =   0.39963
                        Activity of water  =   1.000
                 Ionic strength (mol/kgw)  =   1.008e-04
                       Mass of water (kg)  =   1.000e+00
                 Total alkalinity (eq/kg)  =  -9.649e-17
                         Temperature (°C)  =  73.21
                           Pressure (atm)  = 493.00
                  Electrical balance (eq)  =   2.045e-16
 Percent error, 100*(Cat-|An|)/(Cat+|An|)  =   0.00
                               Iterations  =  11
                                  Total H  = 1.110124e+02
                                  Total O  = 5.550632e+01

----------------------------Distribution of species----------------------------

                                               Log       Log       Log    mole V
   Species          Molality    Activity  Molality  Activity     Gamma   cm³/mol

   OH-             5.422e-07   5.354e-07    -6.266    -6.271    -0.005     -5.80
   H+              5.393e-07   5.327e-07    -6.268    -6.274    -0.005      0.00
   H2O             5.551e+01   1.000e+00     1.744    -0.000     0.000     18.08
Ba            2.507e-05
   Ba+2            2.507e-05   2.386e-05    -4.601    -4.622    -0.021     -8.79
   BaOH+           1.805e-12   1.783e-12   -11.744   -11.749    -0.005     (0)  
H(0)          1.409e-14
   H2              7.047e-15   7.047e-15   -14.152   -14.152     0.000     17.00
O(0)          0.000e+00
   O2              0.000e+00   0.000e+00   -50.861   -50.861     0.000     31.74
S(-2)         4.626e-27
   H2S             2.725e-27   2.725e-27   -26.565   -26.565     0.000     37.66
   HS-             1.901e-27   1.877e-27   -26.721   -26.726    -0.005     20.94
   S-2             1.103e-32   1.050e-32   -31.957   -31.979    -0.022     (0)  
   (H2S)2          0.000e+00   0.000e+00   -53.834   -53.834     0.000     46.99
S(6)          2.507e-05
   SO4-2           2.507e-05   2.385e-05    -4.601    -4.622    -0.022     18.05
   HSO4-           2.882e-09   2.846e-09    -8.540    -8.546    -0.005     40.22

------------------------------Saturation indices-------------------------------

  Phase               SI** log IAP   log K(346 K, 493 atm)

  Barite            0.00     -9.24   -9.24  BaSO4
  H2(g)           -10.90    -14.15   -3.25  H2
  H2O(g)           -0.32     -0.00    0.32  H2O
  H2S(g)          -24.91    -33.00   -8.09  H2S
  O2(g)           -47.53    -50.86   -3.33  O2
  Sulfur          -19.50    -15.87    3.63  S

**For a gas, SI = log10(fugacity). Fugacity = pressure * phi / 1 atm.
  For ideal gases, phi = 1.

Reaction step 5.

Using solution 1.	
Using pure phase assemblage 1.	
Using temperature 1.	

-------------------------------Phase assemblage--------------------------------

                                                      Moles in assemblage
Phase               SI  log IAP  log K(T, P)   Initial       Final       Delta

Barite            0.00    -9.23     -9.23    1.000e+01   1.000e+01  -2.546e-05

-----------------------------Solution composition------------------------------

	Elements           Molality       Moles

	Ba                2.546e-05   2.546e-05
	S                 2.546e-05   2.546e-05

----------------------------Description of solution----------------------------

                                       pH  =   6.120      Charge balance
                                       pe  =  -0.796      Adjusted to redox equilibrium
      Specific Conductance (µS/cm,  89°C)  = 19
                          Density (g/cm³)  =   0.98720
                               Volume (L)  =   1.01298
                        Viscosity (mPa s)  =   0.33017
                        Activity of water  =   1.000
                 Ionic strength (mol/kgw)  =   1.026e-04
                       Mass of water (kg)  =   1.000e+00
                 Total alkalinity (eq/kg)  =  -1.158e-16
                         Temperature (°C)  =  89.29
                           Pressure (atm)  = 493.00
                  Electrical balance (eq)  =   1.951e-16
 Percent error, 100*(Cat-|An|)/(Cat+|An|)  =   0.00
                               Iterations  =  11
                                  Total H  = 1.110124e+02
                                  Total O  = 5.550632e+01

----------------------------Distribution of species----------------------------

                                               Log       Log       Log    mole V
   Species          Molality    Activity  Molality  Activity     Gamma   cm³/mol

   OH-             7.750e-07   7.649e-07    -6.111    -6.116    -0.006     -6.94
   H+              7.684e-07   7.586e-07    -6.114    -6.120    -0.006      0.00
   H2O             5.551e+01   1.000e+00     1.744    -0.000     0.000     18.25
Ba            2.546e-05
   Ba+2            2.546e-05   2.418e-05    -4.594    -4.617    -0.022     -8.68
   BaOH+           1.282e-12   1.265e-12   -11.892   -11.898    -0.006     (0)  
H(0)          1.409e-14
   H2              7.047e-15   7.047e-15   -14.152   -14.152     0.000     17.42
O(0)          0.000e+00
   O2              0.000e+00   0.000e+00   -47.380   -47.380     0.000     32.20
S(-2)         2.570e-28
   H2S             1.668e-28   1.668e-28   -27.778   -27.778     0.000     38.93
   HS-             9.022e-29   8.905e-29   -28.045   -28.050    -0.006     20.52
   S-2             7.847e-34   7.450e-34   -33.105   -33.128    -0.023     (0)  
   (H2S)2          0.000e+00   0.000e+00   -56.184   -56.184     0.000     45.78
S(6)          2.546e-05
   SO4-2           2.545e-05   2.416e-05    -4.594    -4.617    -0.023     16.69
   HSO4-           6.583e-09   6.498e-09    -8.182    -8.187    -0.006     40.01

------------------------------Saturation indices-------------------------------

  Phase               SI** log IAP   log K(362 K, 493 atm)

  Barite            0.00     -9.23   -9.23  BaSO4
  H2(g)           -10.92    -14.15   -3.23  H2
  H2O(g)           -0.04     -0.00    0.04  H2O
  H2S(g)          -26.05    -34.17   -8.12  H2S
  O2(g)           -44.04    -47.38   -3.34  O2
  Sulfur          -20.50    -17.13    3.37  S

**For a gas, SI = log10(fugacity). Fugacity = pressure * phi / 1 atm.
  For ideal gases, phi = 1.

Reaction step 6.

Using solution 1.	
Using pure phase assemblage 1.	
Using temperature 1.	

-------------------------------Phase assemblage--------------------------------

                                                      Moles in assemblage
Phase               SI  log IAP  log K(T, P)   Initial       Final       Delta

Barite            0.00    -9.25     -9.25    1.000e+01   1.000e+01  -2.493e-05

-----------------------------Solution composition------------------------------

	Elements           Molality       Moles

	Ba                2.493e-05   2.493e-05
	S                 2.493e-05   2.493e-05

----------------------------Description of solution----------------------------

                                       pH  =   5.989      Charge balance
                                       pe  =  -0.686      Adjusted to redox equilibrium
      Specific Conductance (µS/cm, 105°C)  = 21
                          Density (g/cm³)  =   0.97671
                               Volume (L)  =   1.02385
                        Viscosity (mPa s)  =   0.27974
                        Activity of water  =   1.000
                 Ionic strength (mol/kgw)  =   1.007e-04
                       Mass of water (kg)  =   1.000e+00
                 Total alkalinity (eq/kg)  =  -9.647e-17
                         Temperature (°C)  = 105.36
                           Pressure (atm)  = 493.00
                  Electrical balance (eq)  =  -6.032e-17
 Percent error, 100*(Cat-|An|)/(Cat+|An|)  =  -0.00
                               Iterations  =  11
                                  Total H  = 1.110124e+02
                                  Total O  = 5.550632e+01

----------------------------Distribution of species----------------------------

                                               Log       Log       Log    mole V
   Species          Molality    Activity  Molality  Activity     Gamma   cm³/mol

   OH-             1.053e-06   1.039e-06    -5.977    -5.983    -0.006     -8.23
   H+              1.039e-06   1.026e-06    -5.983    -5.989    -0.006      0.00
   H2O             5.551e+01   1.000e+00     1.744    -0.000     0.000     18.45
Ba            2.493e-05
   Ba+2            2.493e-05   2.364e-05    -4.603    -4.626    -0.023     -8.67
   BaOH+           9.240e-13   9.117e-13   -12.034   -12.040    -0.006     (0)  
H(0)          1.409e-14
   H2              7.047e-15   7.047e-15   -14.152   -14.152     0.000     17.83
O(0)          0.000e+00
   O2              0.000e+00   0.000e+00   -44.321   -44.321     0.000     32.64
S(-2)         1.799e-29
   H2S             1.279e-29   1.279e-29   -28.893   -28.893     0.000     40.04
   HS-             5.200e-30   5.131e-30   -29.284   -29.290    -0.006     19.90
   S-2             6.671e-35   6.324e-35   -34.176   -34.199    -0.023     (0)  
   (H2S)2          0.000e+00   0.000e+00   -58.364   -58.364     0.000     44.30
S(6)          2.493e-05
   SO4-2           2.491e-05   2.362e-05    -4.604    -4.627    -0.023     14.75
   HSO4-           1.395e-08   1.376e-08    -7.855    -7.861    -0.006     39.60

------------------------------Saturation indices-------------------------------

  Phase               SI** log IAP   log K(378 K, 493 atm)

  Barite            0.00     -9.25   -9.25  BaSO4
  H2(g)           -10.95    -14.15   -3.20  H2
  H2O(g)            0.20     -0.00   -0.20  H2O
  H2S(g)          -27.12    -35.28   -8.16  H2S
  O2(g)           -40.98    -44.32   -3.34  O2
  Sulfur          -21.42    -18.29    3.13  S

**For a gas, SI = log10(fugacity). Fugacity = pressure * phi / 1 atm.
  For ideal gases, phi = 1.

Reaction step 7.

Using solution 1.	
Using pure phase assemblage 1.	
Using temperature 1.	

-------------------------------Phase assemblage--------------------------------

                                                      Moles in assemblage
Phase               SI  log IAP  log K(T, P)   Initial       Final       Delta

Barite           -0.00    -9.30     -9.30    1.000e+01   1.000e+01  -2.363e-05

-----------------------------Solution composition------------------------------

	Elements           Molality       Moles

	Ba                2.363e-05   2.363e-05
	S                 2.363e-05   2.363e-05

----------------------------Description of solution----------------------------

                                       pH  =   5.878      Charge balance
                                       pe  =  -0.595      Adjusted to redox equilibrium
      Specific Conductance (µS/cm, 121°C)  = 23
                          Density (g/cm³)  =   0.96529
                               Volume (L)  =   1.03597
                        Viscosity (mPa s)  =   0.24198
                        Activity of water  =   1.000
                 Ionic strength (mol/kgw)  =   9.582e-05
                       Mass of water (kg)  =   1.000e+00
                 Total alkalinity (eq/kg)  =  -3.826e-17
                         Temperature (°C)  = 121.43
                           Pressure (atm)  = 493.00
                  Electrical balance (eq)  =  -4.641e-16
 Percent error, 100*(Cat-|An|)/(Cat+|An|)  =  -0.00
                               Iterations  =  11
                                  Total H  = 1.110124e+02
                                  Total O  = 5.550631e+01

----------------------------Distribution of species----------------------------

                                               Log       Log       Log    mole V
   Species          Molality    Activity  Molality  Activity     Gamma   cm³/mol

   OH-             1.370e-06   1.351e-06    -5.863    -5.869    -0.006     -9.71
   H+              1.342e-06   1.324e-06    -5.872    -5.878    -0.006      0.00
   H2O             5.551e+01   1.000e+00     1.744    -0.000     0.000     18.66
Ba            2.363e-05
   Ba+2            2.363e-05   2.239e-05    -4.627    -4.650    -0.023     -8.76
   BaOH+           6.749e-13   6.658e-13   -12.171   -12.177    -0.006     (0)  
H(0)          1.409e-14
   H2              7.047e-15   7.047e-15   -14.152   -14.152     0.000     18.26
O(0)          0.000e+00
   O2              0.000e+00   0.000e+00   -41.647   -41.647     0.000     33.09
S(-2)         1.548e-30
   H2S             1.192e-30   1.192e-30   -29.924   -29.924     0.000     41.08
   HS-             3.554e-31   3.506e-31   -30.449   -30.455    -0.006     19.06
   S-2             6.631e-36   6.281e-36   -35.178   -35.202    -0.024     (0)  
   (H2S)2          0.000e+00   0.000e+00   -60.395   -60.395     0.000     42.49
S(6)          2.363e-05
   SO4-2           2.360e-05   2.235e-05    -4.627    -4.651    -0.024     12.19
   HSO4-           2.758e-08   2.721e-08    -7.559    -7.565    -0.006     39.00

------------------------------Saturation indices-------------------------------

  Phase               SI** log IAP   log K(394 K, 493 atm)

  Barite           -0.00     -9.30   -9.30  BaSO4
  H2(g)           -10.99    -14.15   -3.16  H2
  H2O(g)            0.43     -0.00   -0.43  H2O
  H2S(g)          -28.12    -36.33   -8.21  H2S
  O2(g)           -38.33    -41.65   -3.32  O2
  Sulfur          -22.27    -19.36    2.91  S

**For a gas, SI = log10(fugacity). Fugacity = pressure * phi / 1 atm.
  For ideal gases, phi = 1.

Reaction step 8.

Using solution 1.	
Using pure phase assemblage 1.	
Using temperature 1.	

-------------------------------Phase assemblage--------------------------------

                                                      Moles in assemblage
Phase               SI  log IAP  log K(T, P)   Initial       Final       Delta

Barite           -0.00    -9.37     -9.37    1.000e+01   1.000e+01  -2.176e-05

-----------------------------Solution composition------------------------------

	Elements           Molality       Moles

	Ba                2.176e-05   2.176e-05
	S                 2.176e-05   2.176e-05

----------------------------Description of solution----------------------------

                                       pH  =   5.785      Charge balance
                                       pe  =  -0.520      Adjusted to redox equilibrium
      Specific Conductance (µS/cm, 138°C)  = 23
                          Density (g/cm³)  =   0.95295
                               Volume (L)  =   1.04937
                        Viscosity (mPa s)  =   0.21297
                        Activity of water  =   1.000
                 Ionic strength (mol/kgw)  =   8.867e-05
                       Mass of water (kg)  =   1.000e+00
                 Total alkalinity (eq/kg)  =   9.824e-17
                         Temperature (°C)  = 137.50
                           Pressure (atm)  = 493.00
                  Electrical balance (eq)  =  -8.726e-16
 Percent error, 100*(Cat-|An|)/(Cat+|An|)  =  -0.00
                               Iterations  =  11
                                  Total H  = 1.110124e+02
                                  Total O  = 5.550630e+01

----------------------------Distribution of species----------------------------

                                               Log       Log       Log    mole V
   Species          Molality    Activity  Molality  Activity     Gamma   cm³/mol

   OH-             1.715e-06   1.691e-06    -5.766    -5.772    -0.006    -11.45
   H+              1.664e-06   1.641e-06    -5.779    -5.785    -0.006      0.00
   H2O             5.551e+01   1.000e+00     1.744    -0.000     0.000     18.91
Ba            2.176e-05
   Ba+2            2.176e-05   2.062e-05    -4.662    -4.686    -0.023     -8.94
   BaOH+           4.991e-13   4.923e-13   -12.302   -12.308    -0.006     (0)  
H(0)          1.409e-14
   H2              7.047e-15   7.047e-15   -14.152   -14.152     0.000     18.72
O(0)          9.417e-40
   O2              4.708e-40   4.708e-40   -39.327   -39.327     0.000     33.57
S(-2)         1.600e-31
   H2S             1.318e-31   1.318e-31   -30.880   -30.880     0.000     42.09
   HS-             2.821e-32   2.783e-32   -31.550   -31.555    -0.006     17.98
   S-2             7.563e-37   7.162e-37   -36.121   -36.145    -0.024     (0)  
   (H2S)2          0.000e+00   0.000e+00   -62.296   -62.296     0.000     40.30
S(6)          2.176e-05
   SO4-2           2.171e-05   2.056e-05    -4.663    -4.687    -0.024      8.91
   HSO4-           5.114e-08   5.045e-08    -7.291    -7.297    -0.006     38.19

------------------------------Saturation indices-------------------------------

  Phase               SI** log IAP   log K(410 K, 493 atm)

  Barite           -0.00     -9.37   -9.37  BaSO4
  H2(g)           -11.04    -14.15   -3.11  H2
  H2O(g)            0.63     -0.00   -0.63  H2O
  H2S(g)          -29.06    -37.34   -8.28  H2S
  O2(g)           -36.05    -39.33   -3.28  O2
  Sulfur          -23.06    -20.35    2.71  S

**For a gas, SI = log10(fugacity). Fugacity = pressure * phi / 1 atm.
  For ideal gases, phi = 1.

Reaction step 9.

Using solution 1.	
Using pure phase assemblage 1.	
Using temperature 1.	

-------------------------------Phase assemblage--------------------------------

                                                      Moles in assemblage
Phase               SI  log IAP  log K(T, P)   Initial       Final       Delta

Barite           -0.00    -9.47     -9.47    1.000e+01   1.000e+01  -1.956e-05

-----------------------------Solution composition------------------------------

	Elements           Molality       Moles

	Ba                1.956e-05   1.956e-05
	S                 1.956e-05   1.956e-05

----------------------------Description of solution----------------------------

                                       pH  =   5.708      Charge balance
                                       pe  =  -0.460      Adjusted to redox equilibrium
      Specific Conductance (µS/cm, 154°C)  = 23
                          Density (g/cm³)  =   0.93974
                               Volume (L)  =   1.06413
                        Viscosity (mPa s)  =   0.19017
                        Activity of water  =   1.000
                 Ionic strength (mol/kgw)  =   8.013e-05
                       Mass of water (kg)  =   1.000e+00
                 Total alkalinity (eq/kg)  =   2.093e-16
                         Temperature (°C)  = 153.57
                           Pressure (atm)  = 493.00
                  Electrical balance (eq)  =  -1.624e-16
 Percent error, 100*(Cat-|An|)/(Cat+|An|)  =  -0.00
                               Iterations  =  11
                                  Total H  = 1.110124e+02
                                  Total O  = 5.550630e+01

----------------------------Distribution of species----------------------------

                                               Log       Log       Log    mole V
   Species          Molality    Activity  Molality  Activity     Gamma   cm³/mol

   OH-             2.075e-06   2.047e-06    -5.683    -5.689    -0.006    -13.52
   H+              1.985e-06   1.959e-06    -5.702    -5.708    -0.006      0.00
   H2O             5.551e+01   1.000e+00     1.744    -0.000     0.000     19.17
Ba            1.956e-05
   Ba+2            1.956e-05   1.854e-05    -4.709    -4.732    -0.023     -9.22
   BaOH+           3.737e-13   3.687e-13   -12.427   -12.433    -0.006     (0)  
H(0)          1.409e-14
   H2              7.047e-15   7.047e-15   -14.152   -14.152     0.000     19.24
O(0)          9.276e-38
   O2              4.638e-38   4.638e-38   -37.334   -37.334     0.000     34.11
S(-2)         1.943e-32
   H2S             1.688e-32   1.688e-32   -31.773   -31.773     0.000     43.14
   HS-             2.555e-33   2.520e-33   -32.593   -32.599    -0.006     16.59
   S-2             9.736e-38   9.224e-38   -37.012   -37.035    -0.023     (0)  
   (H2S)2          0.000e+00   0.000e+00   -64.083   -64.083     0.000     37.61
S(6)          1.956e-05
   SO4-2           1.947e-05   1.844e-05    -4.711    -4.734    -0.023      4.77
   HSO4-           8.924e-08   8.804e-08    -7.049    -7.055    -0.006     37.12

------------------------------Saturation indices-------------------------------

  Phase               SI** log IAP   log K(426 K, 493 atm)

  Barite           -0.00     -9.47   -9.47  BaSO4
  H2(g)           -11.09    -14.15   -3.06  H2
  H2O(g)            0.82     -0.00   -0.82  H2O
  H2S(g)          -29.95    -38.31   -8.36  H2S
  O2(g)           -34.10    -37.33   -3.24  O2
  Sulfur          -23.80    -21.28    2.52  S

**For a gas, SI = log10(fugacity). Fugacity = pressure * phi / 1 atm.
  For ideal gases, phi = 1.

Reaction step 10.

Using solution 1.	
Using pure phase assemblage 1.	
Using temperature 1.	

-------------------------------Phase assemblage--------------------------------

                                                      Moles in assemblage
Phase               SI  log IAP  log K(T, P)   Initial       Final       Delta

Barite            0.00    -9.58     -9.58    1.000e+01   1.000e+01  -1.721e-05

-----------------------------Solution composition------------------------------

	Elements           Molality       Moles

	Ba                1.721e-05   1.721e-05
	S                 1.721e-05   1.721e-05

----------------------------Description of solution----------------------------

                                       pH  =   5.646      Charge balance
                                       pe  =  -0.415      Adjusted to redox equilibrium
      Specific Conductance (µS/cm, 170°C)  = 22
                          Density (g/cm³)  =   0.92566
                               Volume (L)  =   1.08032
                        Viscosity (mPa s)  =   0.17191
                        Activity of water  =   1.000
                 Ionic strength (mol/kgw)  =   7.100e-05
                       Mass of water (kg)  =   1.000e+00
                 Total alkalinity (eq/kg)  =  -1.242e-15
                         Temperature (°C)  = 169.64
                           Pressure (atm)  = 493.00
                  Electrical balance (eq)  =   1.349e-15
 Percent error, 100*(Cat-|An|)/(Cat+|An|)  =   0.00
                               Iterations  =  10
                                  Total H  = 1.110124e+02
                                  Total O  = 5.550629e+01

----------------------------Distribution of species----------------------------

                                               Log       Log       Log    mole V
   Species          Molality    Activity  Molality  Activity     Gamma   cm³/mol

   OH-             2.436e-06   2.403e-06    -5.613    -5.619    -0.006    -16.03
   H+              2.289e-06   2.259e-06    -5.640    -5.646    -0.006      0.00
   H2O             5.551e+01   1.000e+00     1.744    -0.000     0.000     19.46
Ba            1.721e-05
   Ba+2            1.721e-05   1.633e-05    -4.764    -4.787    -0.023     -9.62
   BaOH+           2.836e-13   2.799e-13   -12.547   -12.553    -0.006     (0)  
H(0)          1.418e-14
   H2              7.091e-15   7.091e-15   -14.149   -14.149     0.000     19.84
O(0)          4.501e-36
   O2              2.251e-36   2.251e-36   -35.648   -35.648     0.000     34.71
S(-2)         2.784e-33
   H2S             2.518e-33   2.518e-33   -32.599   -32.599     0.000     44.26
   HS-             2.664e-34   2.629e-34   -33.574   -33.580    -0.006     14.85
   S-2             1.431e-38   1.357e-38   -37.844   -37.868    -0.023     (0)  
   (H2S)2          0.000e+00   0.000e+00   -65.749   -65.749     0.000     34.32
S(6)          1.721e-05
   SO4-2           1.707e-05   1.618e-05    -4.768    -4.791    -0.023     -0.43
   HSO4-           1.469e-07   1.450e-07    -6.833    -6.839    -0.006     35.75

------------------------------Saturation indices-------------------------------

  Phase               SI** log IAP   log K(442 K, 493 atm)

  Barite            0.00     -9.58   -9.58  BaSO4
  H2(g)           -11.15    -14.15   -3.00  H2
  H2O(g)            0.98     -0.00   -0.98  H2O
  H2S(g)          -30.78    -39.23   -8.44  H2S
  O2(g)           -32.46    -35.65   -3.19  O2
  Sulfur          -24.48    -22.14    2.35  S

**For a gas, SI = log10(fugacity). Fugacity = pressure * phi / 1 atm.
  For ideal gases, phi = 1.

Reaction step 11.

Using solution 1.	
Using pure phase assemblage 1.	
Using temperature 1.	

-------------------------------Phase assemblage--------------------------------

                                                      Moles in assemblage
Phase               SI  log IAP  log K(T, P)   Initial       Final       Delta

Barite           -0.00    -9.71     -9.71    1.000e+01   1.000e+01  -1.490e-05

-----------------------------Solution composition------------------------------

	Elements           Molality       Moles

	Ba                1.490e-05   1.490e-05
	S                 1.490e-05   1.490e-05

----------------------------Description of solution----------------------------

                                       pH  =   5.598      Charge balance
                                       pe  =   3.587      Adjusted to redox equilibrium
      Specific Conductance (µS/cm, 186°C)  = 21
                          Density (g/cm³)  =   0.91073
                               Volume (L)  =   1.09802
                        Viscosity (mPa s)  =   0.15703
                        Activity of water  =   1.000
                 Ionic strength (mol/kgw)  =   6.194e-05
                       Mass of water (kg)  =   1.000e+00
                 Total alkalinity (eq/kg)  =   6.689e-15
                         Temperature (°C)  = 185.71
                           Pressure (atm)  = 493.00
                  Electrical balance (eq)  =  -7.905e-15
 Percent error, 100*(Cat-|An|)/(Cat+|An|)  =  -0.00
                               Iterations  =   6
                                  Total H  = 1.110124e+02
                                  Total O  = 5.550628e+01

----------------------------Distribution of species----------------------------

                                               Log       Log       Log    mole V
   Species          Molality    Activity  Molality  Activity     Gamma   cm³/mol

   OH-             2.783e-06   2.747e-06    -5.555    -5.561    -0.006    -19.10
   H+              2.554e-06   2.522e-06    -5.593    -5.598    -0.006      0.00
   H2O             5.551e+01   1.000e+00     1.744    -0.000     0.000     19.78
Ba            1.490e-05
   Ba+2            1.490e-05   1.415e-05    -4.827    -4.849    -0.022    -10.15
   BaOH+           2.185e-13   2.156e-13   -12.661   -12.666    -0.006     (0)  
H(0)          1.627e-22
   H2              8.135e-23   8.135e-23   -22.090   -22.090     0.000     20.55
O(0)          8.813e-19
   O2              4.406e-19   4.407e-19   -18.356   -18.356     0.000     35.42
S(-2)         0.000e+00
   H2S             0.000e+00   0.000e+00   -65.150   -65.150     0.000     45.51
   HS-             0.000e+00   0.000e+00   -66.284   -66.290    -0.006     12.66
   S-2             0.000e+00   0.000e+00   -70.409   -70.431    -0.023     (0)  
   (H2S)2          0.000e+00   0.000e+00  -130.874  -130.874     0.000     30.24
S(6)          1.490e-05
   SO4-2           1.467e-05   1.393e-05    -4.833    -4.856    -0.023     -6.93
   HSO4-           2.288e-07   2.259e-07    -6.640    -6.646    -0.006     34.01

------------------------------Saturation indices-------------------------------

  Phase               SI** log IAP   log K(458 K, 493 atm)

  Barite           -0.00     -9.71   -9.71  BaSO4
  H2(g)           -19.16    -22.09   -2.93  H2
  H2O(g)            1.14     -0.00   -1.14  H2O
  H2S(g)          -63.35    -71.89   -8.54  H2S
  O2(g)           -15.23    -18.36   -3.13  O2
  Sulfur          -48.96    -46.78    2.18  S

**For a gas, SI = log10(fugacity). Fugacity = pressure * phi / 1 atm.
  For ideal gases, phi = 1.

Reaction step 12.

Using solution 1.	
Using pure phase assemblage 1.	
Using temperature 1.	

-------------------------------Phase assemblage--------------------------------

                                                      Moles in assemblage
Phase               SI  log IAP  log K(T, P)   Initial       Final       Delta

Barite           -0.00    -9.84     -9.84    1.000e+01   1.000e+01  -1.275e-05

-----------------------------Solution composition------------------------------

	Elements           Molality       Moles

	Ba                1.275e-05   1.275e-05
	S                 1.275e-05   1.275e-05

----------------------------Description of solution----------------------------

                                       pH  =   5.563      Charge balance
                                       pe  =   4.412      Adjusted to redox equilibrium
      Specific Conductance (µS/cm, 202°C)  = 19
                          Density (g/cm³)  =   0.89498
                               Volume (L)  =   1.11734
                        Viscosity (mPa s)  =   0.14466 (solute contributions limited to 200 °C)
                        Activity of water  =   1.000
                 Ionic strength (mol/kgw)  =   5.342e-05
                       Mass of water (kg)  =   1.000e+00
                 Total alkalinity (eq/kg)  =   1.278e-14
                         Temperature (°C)  = 201.79
                           Pressure (atm)  = 493.00
                  Electrical balance (eq)  =  -1.586e-14
 Percent error, 100*(Cat-|An|)/(Cat+|An|)  =  -0.00
                               Iterations  =   6
                                  Total H  = 1.110124e+02
                                  Total O  = 5.550627e+01

----------------------------Distribution of species----------------------------

                                               Log       Log       Log    mole V
   Species          Molality    Activity  Molality  Activity     Gamma   cm³/mol

   OH-             3.104e-06   3.065e-06    -5.508    -5.514    -0.006    -22.88
   H+              2.767e-06   2.732e-06    -5.558    -5.563    -0.005      0.00
   H2O             5.551e+01   1.000e+00     1.744    -0.000     0.000     20.13
Ba            1.275e-05
   Ba+2            1.275e-05   1.212e-05    -4.895    -4.916    -0.022    -10.85
   BaOH+           1.712e-13   1.690e-13   -12.767   -12.772    -0.006     (0)  
H(0)          4.014e-24
   H2              2.007e-24   2.007e-24   -23.697   -23.697     0.000     21.40
O(0)          2.044e-14
   O2              1.022e-14   1.022e-14   -13.991   -13.991     0.000     36.28
S(-2)         0.000e+00
   H2S             0.000e+00   0.000e+00   -72.330   -72.330     0.000     46.94
   HS-             0.000e+00   0.000e+00   -73.624   -73.630    -0.006      9.91
   S-2             0.000e+00   0.000e+00   -77.607   -77.629    -0.022     (0)  
   (H2S)2          0.000e+00   0.000e+00  -145.262  -145.262     0.000     25.17
S(6)          1.275e-05
   SO4-2           1.241e-05   1.180e-05    -4.906    -4.928    -0.022    -15.11
   HSO4-           3.375e-07   3.333e-07    -6.472    -6.477    -0.006     31.80

------------------------------Saturation indices-------------------------------

  Phase               SI** log IAP   log K(474 K, 493 atm)

  Barite           -0.00     -9.84   -9.84  BaSO4
  H2(g)           -20.83    -23.70   -2.86  H2
  H2O(g)            1.28     -0.00   -1.28  H2O
  H2S(g)          -70.55    -79.19   -8.64  H2S
  O2(g)           -10.93    -13.99   -3.06  O2
  Sulfur          -54.41    -52.38    2.03  S

**For a gas, SI = log10(fugacity). Fugacity = pressure * phi / 1 atm.
  For ideal gases, phi = 1.

Reaction step 13.

Using solution 1.	
Using pure phase assemblage 1.	
Using temperature 1.	

-------------------------------Phase assemblage--------------------------------

                                                      Moles in assemblage
Phase               SI  log IAP  log K(T, P)   Initial       Final       Delta

Barite           -0.00    -9.99     -9.99    1.000e+01   1.000e+01  -1.083e-05

-----------------------------Solution composition------------------------------

	Elements           Molality       Moles

	Ba                1.083e-05   1.083e-05
	S                 1.083e-05   1.083e-05

----------------------------Description of solution----------------------------

                                       pH  =   5.541      Charge balance
                                       pe  =   4.449      Adjusted to redox equilibrium
      Specific Conductance (µS/cm, 218°C)  = 17
                          Density (g/cm³)  =   0.87839
                               Volume (L)  =   1.13844
                        Viscosity (mPa s)  =   0.13432 (solute contributions limited to 200 °C)
                        Activity of water  =   1.000
                 Ionic strength (mol/kgw)  =   4.578e-05
                       Mass of water (kg)  =   1.000e+00
                 Total alkalinity (eq/kg)  =   1.770e-14
                         Temperature (°C)  = 217.86
                           Pressure (atm)  = 493.00
                  Electrical balance (eq)  =  -2.232e-14
 Percent error, 100*(Cat-|An|)/(Cat+|An|)  =  -0.00
                               Iterations  =   6
                                  Total H  = 1.110124e+02
                                  Total O  = 5.550626e+01

----------------------------Distribution of species----------------------------

                                               Log       Log       Log    mole V
   Species          Molality    Activity  Molality  Activity     Gamma   cm³/mol

   OH-             3.388e-06   3.346e-06    -5.470    -5.475    -0.005    -27.61
   H+              2.915e-06   2.880e-06    -5.535    -5.541    -0.005      0.00
   H2O             5.551e+01   1.000e+00     1.744    -0.000     0.000     20.51
Ba            1.083e-05
   Ba+2            1.083e-05   1.031e-05    -4.965    -4.987    -0.021    -11.77
   BaOH+           1.367e-13   1.350e-13   -12.864   -12.870    -0.005     (0)  
H(0)          3.515e-24
   H2              1.758e-24   1.758e-24   -23.755   -23.755     0.000     22.44
O(0)          2.143e-13
   O2              1.071e-13   1.071e-13   -12.970   -12.970     0.000     37.32
S(-2)         0.000e+00
   H2S             0.000e+00   0.000e+00   -73.275   -73.275     0.000     48.64
   HS-             0.000e+00   0.000e+00   -74.728   -74.734    -0.005      6.42
   S-2             0.000e+00   0.000e+00   -78.572   -78.593    -0.021     (0)  
   (H2S)2          0.000e+00   0.000e+00  -147.182  -147.182     0.000     18.80
S(6)          1.083e-05
   SO4-2           1.036e-05   9.862e-06    -4.985    -5.006    -0.021    -25.45
   HSO4-           4.722e-07   4.664e-07    -6.326    -6.331    -0.005     28.98

------------------------------Saturation indices-------------------------------

  Phase               SI** log IAP   log K(491 K, 493 atm)

  Barite           -0.00     -9.99   -9.99  BaSO4
  H2(g)           -20.96    -23.76   -2.79  H2
  H2O(g)            1.41     -0.00   -1.41  H2O
  H2S(g)          -71.52    -80.27   -8.75  H2S
  O2(g)            -9.98    -12.97   -2.99  O2
  Sulfur          -55.18    -53.29    1.89  S

**For a gas, SI = log10(fugacity). Fugacity = pressure * phi / 1 atm.
  For ideal gases, phi = 1.

Reaction step 14.

Using solution 1.	
Using pure phase assemblage 1.	
Using temperature 1.	

-------------------------------Phase assemblage--------------------------------

                                                      Moles in assemblage
Phase               SI  log IAP  log K(T, P)   Initial       Final       Delta

Barite           -0.00   -10.14    -10.14    1.000e+01   1.000e+01  -9.203e-06

-----------------------------Solution composition------------------------------

	Elements           Molality       Moles

	Ba                9.203e-06   9.203e-06
	S                 9.203e-06   9.203e-06

----------------------------Description of solution----------------------------

                                       pH  =   5.529      Charge balance
                                       pe  =   4.460      Adjusted to redox equilibrium
      Specific Conductance (µS/cm, 234°C)  = 15
                          Density (g/cm³)  =   0.86093
                               Volume (L)  =   1.16154
                        Viscosity (mPa s)  =   0.12549 (solute contributions limited to 200 °C)
                        Activity of water  =   1.000
                 Ionic strength (mol/kgw)  =   3.918e-05
                       Mass of water (kg)  =   1.000e+00
                 Total alkalinity (eq/kg)  =   2.131e-14
                         Temperature (°C)  = 233.93
                           Pressure (atm)  = 493.00
                  Electrical balance (eq)  =  -2.538e-14
 Percent error, 100*(Cat-|An|)/(Cat+|An|)  =  -0.00
                               Iterations  =   6
                                  Total H  = 1.110124e+02
                                  Total O  = 5.550625e+01

----------------------------Distribution of species----------------------------

                                               Log       Log       Log    mole V
   Species          Molality    Activity  Molality  Activity     Gamma   cm³/mol

   OH-             3.624e-06   3.581e-06    -5.441    -5.446    -0.005    -33.59
   H+              2.997e-06   2.961e-06    -5.523    -5.529    -0.005      0.00
   H2O             5.551e+01   1.000e+00     1.744    -0.000     0.000     20.93
Ba            9.203e-06
   Ba+2            9.203e-06   8.773e-06    -5.036    -5.057    -0.021    -12.95
   BaOH+           1.116e-13   1.103e-13   -12.952   -12.957    -0.005     (0)  
H(0)          3.310e-24
   H2              1.655e-24   1.655e-24   -23.781   -23.781     0.000     23.75
O(0)          1.146e-12
   O2              5.728e-13   5.728e-13   -12.242   -12.242     0.000     38.62
S(-2)         0.000e+00
   H2S             0.000e+00   0.000e+00   -74.063   -74.063     0.000     50.71
   HS-             0.000e+00   0.000e+00   -75.674   -75.679    -0.005      1.96
   S-2             0.000e+00   0.000e+00   -79.383   -79.404    -0.021     (0)  
   (H2S)2          0.000e+00   0.000e+00  -148.789  -148.789     0.000     10.70
S(6)          9.203e-06
   SO4-2           8.576e-06   8.173e-06    -5.067    -5.088    -0.021    -38.66
   HSO4-           6.274e-07   6.199e-07    -6.202    -6.208    -0.005     25.38

------------------------------Saturation indices-------------------------------

  Phase               SI** log IAP   log K(507 K, 493 atm)

  Barite           -0.00    -10.14  -10.14  BaSO4
  H2(g)           -21.06    -23.78   -2.72  H2
  H2O(g)            1.52     -0.00   -1.52  H2O
  H2S(g)          -72.34    -81.21   -8.86  H2S
  O2(g)            -9.33    -12.24   -2.91  O2
  Sulfur          -55.84    -54.08    1.75  S

**For a gas, SI = log10(fugacity). Fugacity = pressure * phi / 1 atm.
  For ideal gases, phi = 1.

Reaction step 15.

Using solution 1.	
Using pure phase assemblage 1.	
Using temperature 1.	

-------------------------------Phase assemblage--------------------------------

                                                      Moles in assemblage
Phase               SI  log IAP  log K(T, P)   Initial       Final       Delta

Barite           -0.00   -10.30    -10.30    1.000e+01   1.000e+01  -7.869e-06

-----------------------------Solution composition------------------------------

	Elements           Molality       Moles

	Ba                7.869e-06   7.869e-06
	S                 7.869e-06   7.869e-06

----------------------------Description of solution----------------------------

                                       pH  =   5.526      Charge balance
                                       pe  =   4.461      Adjusted to redox equilibrium
      Specific Conductance (µS/cm, 250°C)  = 14
                          Density (g/cm³)  =   0.84250
                               Volume (L)  =   1.18695
                        Viscosity (mPa s)  =   0.11784 (solute contributions limited to 200 °C)
                        Activity of water  =   1.000
                 Ionic strength (mol/kgw)  =   3.370e-05
                       Mass of water (kg)  =   1.000e+00
                 Total alkalinity (eq/kg)  =   2.723e-14
                         Temperature (°C)  = 250.00
                           Pressure (atm)  = 493.00
                  Electrical balance (eq)  =  -2.764e-14
 Percent error, 100*(Cat-|An|)/(Cat+|An|)  =  -0.00
                               Iterations  =   6
                                  Total H  = 1.110124e+02
                                  Total O  = 5.550625e+01

----------------------------Distribution of species----------------------------

                                               Log       Log       Log    mole V
   Species          Molality    Activity  Molality  Activity     Gamma   cm³/mol

   OH-             3.809e-06   3.765e-06    -5.419    -5.424    -0.005    -41.27
   H+              3.016e-06   2.981e-06    -5.521    -5.526    -0.005      0.00
   H2O             5.551e+01   1.000e+00     1.744    -0.000     0.000     21.38
Ba            7.869e-06
   Ba+2            7.869e-06   7.509e-06    -5.104    -5.124    -0.020    -14.51
   BaOH+           9.344e-14   9.234e-14   -13.029   -13.035    -0.005     (0)  
H(0)          3.137e-24
   H2              1.569e-24   1.569e-24   -23.804   -23.804     0.000     25.41
O(0)          3.674e-12
   O2              1.837e-12   1.837e-12   -11.736   -11.736     0.000     40.26
S(-2)         0.000e+00
   H2S             0.000e+00   0.000e+00   -74.813   -74.813     0.000     53.28
   HS-             0.000e+00   0.000e+00   -76.578   -76.583    -0.005     -3.81
   S-2             0.000e+00   0.000e+00   -80.160   -80.180    -0.020     (0)  
   (H2S)2          0.000e+00   0.000e+00  -150.315  -150.315     0.000      0.27
S(6)          7.869e-06
   SO4-2           7.076e-06   6.751e-06    -5.150    -5.171    -0.020    -55.71
   HSO4-           7.933e-07   7.840e-07    -6.101    -6.106    -0.005     20.70

------------------------------Saturation indices-------------------------------

  Phase               SI** log IAP   log K(523 K, 493 atm)

  Barite           -0.00    -10.30  -10.30  BaSO4
  H2(g)           -21.17    -23.80   -2.64  H2
  H2O(g)            1.63     -0.00   -1.63  H2O
  H2S(g)          -73.13    -82.11   -8.98  H2S
  O2(g)            -8.90    -11.74   -2.84  O2
  Sulfur          -56.46    -54.84    1.62  S

**For a gas, SI = log10(fugacity). Fugacity = pressure * phi / 1 atm.
  For ideal gases, phi = 1.

------------------
End of simulation.
------------------

------------------------------------
Reading input data for simulation 2.
------------------------------------

