WARNING: Database file from DATABASE keyword is used; command line argument ignored.
   Input file: Barite_NaCl
  Output file: Barite_NaCl.out
Database file: ../database/pitzer.dat

------------------
Reading data base.
------------------

WARNING: Unknown input, no keyword has been specified.
	SOLUTION_MASTER_SPECIES
	SOLUTION_SPECIES
	PHASES
	PITZER
	GAS_BINARY_PARAMETERS
	EXCHANGE_MASTER_SPECIES
	EXCHANGE_SPECIES
	SURFACE_MASTER_SPECIES
	SURFACE_SPECIES
	MEAN_GAMMAS
	END
------------------------------------
Reading input data for simulation 1.
------------------------------------

	DATABASE ../database/pitzer.dat
	SELECTED_OUTPUT 101
	    file                 Barite_NaCl_101.sel
	USER_PUNCH 101
	    headings Mu SC
	    start
	10 PUNCH STR_F$(MU, 20, 12)
	20 PUNCH STR_F$(SC, 20, 10)
	    end
	PITZER
	SOLUTION 1
	 pH 7 charge
	 temp 50
	EQUILIBRIUM_PHASES
	 Barite
	REACTION
	 NaCl 1
	 0 5*0.1 9*0.5
	INCREMENTAL_REACTIONS true
	USER_GRAPH
	 -plot_csv Barite_NaCl.dat
	 -chart_ti "Barite solubility at 50 oC"
	 axis_titles "NaCl / M" "Barite solubility / M"
	 10 plot_xy tot("Na"), tot("Ba"), color = Red, symbol = None
	END
-------------------------------------------
Beginning of initial solution calculations.
-------------------------------------------

Initial solution 1.	

-----------------------------Solution composition------------------------------

	Elements           Molality       Moles

	Pure water     

----------------------------Description of solution----------------------------

                                       pH  =   6.631      Charge balance
                                       pe  =   4.000    
      Specific Conductance (µS/cm,  50°C)  = 0
                          Density (g/cm³)  =   0.98803
                               Volume (L)  =   1.01212
                        Viscosity (mPa s)  =   0.54651
                        Activity of water  =   1.000
                 Ionic strength (mol/kgw)  =   2.341e-07
                       Mass of water (kg)  =   1.000e+00
                 Total alkalinity (eq/kg)  =  -4.765e-22
                         Temperature (°C)  =  50.00
                  Electrical balance (eq)  =   4.765e-22
 Percent error, 100*(Cat-|An|)/(Cat+|An|)  =   0.00
                               Iterations  =   6
                         Gamma iterations  =   2
                      Osmotic coefficient  =   0.99980
                         Density of water  =   0.98803
                                  Total H  = 1.110124e+02
                                  Total O  = 5.550622e+01

----------------------------Distribution of species----------------------------

                                                    MacInnes  MacInnes
                                MacInnes       Log       Log       Log    mole V
   Species          Molality    Activity  Molality  Activity     Gamma   cm³/mol

   H+              2.341e-07   2.340e-07    -6.631    -6.631    -0.000      0.00
   OH-             2.341e-07   2.340e-07    -6.631    -6.631    -0.000     -3.84
   H2O             5.551e+01   1.000e+00     1.744    -0.000     0.000     18.23

------------------------------Saturation indices-------------------------------

  Phase               SI** log IAP   log K(323 K,   1 atm)

  H2O(g)           -0.92     -0.00    0.92  H2O

**For a gas, SI = log10(fugacity). Fugacity = pressure * phi / 1 atm.
  For ideal gases, phi = 1.

-----------------------------------------
Beginning of batch-reaction calculations.
-----------------------------------------

Reaction step 1.

Using solution 1.	
Using pure phase assemblage 1.	
Using reaction 1.	

Reaction 1.	

	  0.000e+00 moles of the following reaction have been added:

	                 Relative
	Reactant            moles

	NaCl                 1.00000

	                 Relative
	Element             moles
	Cl                   1.00000
	Na                   1.00000

-------------------------------Phase assemblage--------------------------------

                                                      Moles in assemblage
Phase               SI  log IAP  log K(T, P)   Initial       Final       Delta

Barite            0.00    -9.68     -9.68    1.000e+01   1.000e+01  -1.502e-05

-----------------------------Solution composition------------------------------

	Elements           Molality       Moles

	Ba                1.502e-05   1.502e-05
	S                 1.502e-05   1.502e-05

----------------------------Description of solution----------------------------

                                       pH  =   6.631      Charge balance
                                       pe  =   4.000      Adjusted to redox equilibrium
      Specific Conductance (µS/cm,  50°C)  = 6
                          Density (g/cm³)  =   0.98803
                               Volume (L)  =   1.01212
                        Viscosity (mPa s)  =   0.54659
                        Activity of water  =   1.000
                 Ionic strength (mol/kgw)  =   6.032e-05
                       Mass of water (kg)  =   1.000e+00
                 Total alkalinity (eq/kg)  =  -3.687e-18
                         Temperature (°C)  =  50.00
                  Electrical balance (eq)  =   1.503e-15
 Percent error, 100*(Cat-|An|)/(Cat+|An|)  =   0.00
                               Iterations  =   7
                         Gamma iterations  =   3
                      Osmotic coefficient  =   0.98752
                         Density of water  =   0.98803
                                  Total H  = 1.110124e+02
                                  Total O  = 5.550628e+01

----------------------------Distribution of species----------------------------

                                                    MacInnes  MacInnes
                                MacInnes       Log       Log       Log    mole V
   Species          Molality    Activity  Molality  Activity     Gamma   cm³/mol

   OH-             2.365e-07   2.343e-07    -6.626    -6.630    -0.004     -3.83
   H+              2.359e-07   2.336e-07    -6.627    -6.631    -0.004      0.00
   H2O             5.551e+01   1.000e+00     1.744    -0.000     0.000     18.23
Ba            1.502e-05
   Ba+2            1.502e-05   1.446e-05    -4.823    -4.840    -0.017    -12.58
S(6)          1.502e-05
   SO4-2           1.502e-05   1.446e-05    -4.823    -4.840    -0.016     15.88
   HSO4-           6.013e-10   5.956e-10    -9.221    -9.225    -0.004     41.24

------------------------------Saturation indices-------------------------------

  Phase               SI** log IAP   log K(323 K,   1 atm)

  Barite            0.00     -9.68   -9.68  BaSO4
  H2O(g)           -0.92     -0.00    0.92  H2O

**For a gas, SI = log10(fugacity). Fugacity = pressure * phi / 1 atm.
  For ideal gases, phi = 1.

Reaction step 2.

Using solution 1.	
Using pure phase assemblage 1.	
Using reaction 1.	

Reaction 1.	

	  1.000e-01 moles of the following reaction have been added:

	                 Relative
	Reactant            moles

	NaCl                 1.00000

	                 Relative
	Element             moles
	Cl                   1.00000
	Na                   1.00000

-------------------------------Phase assemblage--------------------------------

                                                      Moles in assemblage
Phase               SI  log IAP  log K(T, P)   Initial       Final       Delta

Barite            0.00    -9.68     -9.68    1.000e+01   1.000e+01  -3.100e-05

-----------------------------Solution composition------------------------------

	Elements           Molality       Moles

	Ba                4.602e-05   4.602e-05
	Cl                1.000e-01   1.000e-01
	Na                1.000e-01   1.000e-01
	S                 4.602e-05   4.602e-05

----------------------------Description of solution----------------------------

                                       pH  =   6.619      Charge balance
                                       pe  =   4.000      Adjusted to redox equilibrium
      Specific Conductance (µS/cm,  50°C)  = 16136
                          Density (g/cm³)  =   0.99201
                               Volume (L)  =   1.01396
                        Viscosity (mPa s)  =   0.55293
                        Activity of water  =   0.997
                 Ionic strength (mol/kgw)  =   1.002e-01
                       Mass of water (kg)  =   1.000e+00
                 Total alkalinity (eq/kg)  =  -6.863e-18
                         Temperature (°C)  =  50.00
                  Electrical balance (eq)  =   2.558e-14
 Percent error, 100*(Cat-|An|)/(Cat+|An|)  =   0.00
                               Iterations  =   6
                         Gamma iterations  =   3
                      Osmotic coefficient  =   0.93048
                         Density of water  =   0.98803
                                  Total H  = 1.110124e+02
                                  Total O  = 5.550640e+01

----------------------------Distribution of species----------------------------

                                                    MacInnes  MacInnes
                                MacInnes       Log       Log       Log    mole V
   Species          Molality    Activity  Molality  Activity     Gamma   cm³/mol

   OH-             3.019e-07   2.270e-07    -6.520    -6.644    -0.124     -3.35
   H+              3.012e-07   2.403e-07    -6.521    -6.619    -0.098      0.00
   H2O             5.551e+01   9.967e-01     1.744    -0.001     0.000     18.23
Ba            4.602e-05
   Ba+2            4.602e-05   1.538e-05    -4.337    -4.813    -0.476    -11.30
Cl            1.000e-01
   Cl-             1.000e-01   7.615e-02    -1.000    -1.118    -0.118     18.56
Na            1.000e-01
   Na+             1.000e-01   7.793e-02    -1.000    -1.108    -0.108     -0.16
S(6)          4.602e-05
   SO4-2           4.602e-05   1.360e-05    -4.337    -4.866    -0.529     17.25
   HSO4-           7.538e-10   5.759e-10    -9.123    -9.240    -0.117     41.59

------------------------------Saturation indices-------------------------------

  Phase               SI** log IAP   log K(323 K,   1 atm)

  Barite            0.00     -9.68   -9.68  BaSO4
  H2O(g)           -0.92     -0.00    0.92  H2O
  Halite           -3.84     -2.23    1.62  NaCl
  Mirabilite       -6.73     -7.10   -0.36  Na2SO4:10H2O
  Thenardite       -6.66     -7.08   -0.42  Na2SO4

**For a gas, SI = log10(fugacity). Fugacity = pressure * phi / 1 atm.
  For ideal gases, phi = 1.

Reaction step 3.

Using solution 1.	
Using pure phase assemblage 1.	
Using reaction 1.	

Reaction 1.	

	  1.000e-01 moles of the following reaction have been added:

	                 Relative
	Reactant            moles

	NaCl                 1.00000

	                 Relative
	Element             moles
	Cl                   1.00000
	Na                   1.00000

-------------------------------Phase assemblage--------------------------------

                                                      Moles in assemblage
Phase               SI  log IAP  log K(T, P)   Initial       Final       Delta

Barite            0.00    -9.68     -9.68    1.000e+01   1.000e+01  -1.607e-05

-----------------------------Solution composition------------------------------

	Elements           Molality       Moles

	Ba                6.209e-05   6.209e-05
	Cl                2.000e-01   2.000e-01
	Na                2.000e-01   2.000e-01
	S                 6.209e-05   6.209e-05

----------------------------Description of solution----------------------------

                                       pH  =   6.608      Charge balance
                                       pe  =   4.000      Adjusted to redox equilibrium
      Specific Conductance (µS/cm,  50°C)  = 30589
                          Density (g/cm³)  =   0.99592
                               Volume (L)  =   1.01585
                        Viscosity (mPa s)  =   0.55867
                        Activity of water  =   0.993
                 Ionic strength (mol/kgw)  =   2.002e-01
                       Mass of water (kg)  =   1.000e+00
                 Total alkalinity (eq/kg)  =   1.008e-16
                         Temperature (°C)  =  50.00
                  Electrical balance (eq)  =   4.290e-11
 Percent error, 100*(Cat-|An|)/(Cat+|An|)  =   0.00
                               Iterations  =   8
                         Gamma iterations  =   3
                      Osmotic coefficient  =   0.92258
                         Density of water  =   0.98803
                                  Total H  = 1.110124e+02
                                  Total O  = 5.550647e+01

----------------------------Distribution of species----------------------------

                                                    MacInnes  MacInnes
                                MacInnes       Log       Log       Log    mole V
   Species          Molality    Activity  Molality  Activity     Gamma   cm³/mol

   OH-             3.178e-07   2.207e-07    -6.498    -6.656    -0.158     -3.08
   H+              3.170e-07   2.464e-07    -6.499    -6.608    -0.109      0.00
   H2O             5.551e+01   9.934e-01     1.744    -0.003     0.000     18.23
Ba            6.209e-05
   Ba+2            6.209e-05   1.629e-05    -4.207    -4.788    -0.581    -10.90
Cl            2.000e-01
   Cl-             2.000e-01   1.422e-01    -0.699    -0.847    -0.148     18.71
Na            2.000e-01
   Na+             2.000e-01   1.483e-01    -0.699    -0.829    -0.130     -0.02
S(6)          6.209e-05
   SO4-2           6.209e-05   1.284e-05    -4.207    -4.892    -0.684     17.84
   HSO4-           7.821e-10   5.575e-10    -9.107    -9.254    -0.147     41.73

------------------------------Saturation indices-------------------------------

  Phase               SI** log IAP   log K(323 K,   1 atm)

  Barite            0.00     -9.68   -9.68  BaSO4
  H2O(g)           -0.92     -0.00    0.92  H2O
  Halite           -3.29     -1.68    1.62  NaCl
  Mirabilite       -6.21     -6.58   -0.36  Na2SO4:10H2O
  Thenardite       -6.13     -6.55   -0.42  Na2SO4

**For a gas, SI = log10(fugacity). Fugacity = pressure * phi / 1 atm.
  For ideal gases, phi = 1.

Reaction step 4.

Using solution 1.	
Using pure phase assemblage 1.	
Using reaction 1.	

Reaction 1.	

	  1.000e-01 moles of the following reaction have been added:

	                 Relative
	Reactant            moles

	NaCl                 1.00000

	                 Relative
	Element             moles
	Cl                   1.00000
	Na                   1.00000

-------------------------------Phase assemblage--------------------------------

                                                      Moles in assemblage
Phase               SI  log IAP  log K(T, P)   Initial       Final       Delta

Barite            0.00    -9.68     -9.68    1.000e+01   1.000e+01  -1.275e-05

-----------------------------Solution composition------------------------------

	Elements           Molality       Moles

	Ba                7.483e-05   7.483e-05
	Cl                3.000e-01   3.000e-01
	Na                3.000e-01   3.000e-01
	S                 7.483e-05   7.483e-05

----------------------------Description of solution----------------------------

                                       pH  =   6.598      Charge balance
                                       pe  =   4.000      Adjusted to redox equilibrium
      Specific Conductance (µS/cm,  50°C)  = 44206
                          Density (g/cm³)  =   0.99977
                               Volume (L)  =   1.01778
                        Viscosity (mPa s)  =   0.56439
                        Activity of water  =   0.990
                 Ionic strength (mol/kgw)  =   3.003e-01
                       Mass of water (kg)  =   1.000e+00
                 Total alkalinity (eq/kg)  =   2.682e-16
                         Temperature (°C)  =  50.00
                  Electrical balance (eq)  =   6.770e-11
 Percent error, 100*(Cat-|An|)/(Cat+|An|)  =   0.00
                               Iterations  =   7
                         Gamma iterations  =   3
                      Osmotic coefficient  =   0.92080
                         Density of water  =   0.98803
                                  Total H  = 1.110124e+02
                                  Total O  = 5.550652e+01

----------------------------Distribution of species----------------------------

                                                    MacInnes  MacInnes
                                MacInnes       Log       Log       Log    mole V
   Species          Molality    Activity  Molality  Activity     Gamma   cm³/mol

   OH-             3.260e-07   2.148e-07    -6.487    -6.668    -0.181     -2.85
   H+              3.252e-07   2.523e-07    -6.488    -6.598    -0.110      0.00
   H2O             5.551e+01   9.901e-01     1.744    -0.004     0.000     18.23
Ba            7.483e-05
   Ba+2            7.483e-05   1.722e-05    -4.126    -4.764    -0.638    -10.62
Cl            3.000e-01
   Cl-             3.000e-01   2.045e-01    -0.523    -0.689    -0.166     18.81
Na            3.000e-01
   Na+             3.000e-01   2.170e-01    -0.523    -0.663    -0.141      0.07
S(6)          7.483e-05
   SO4-2           7.483e-05   1.214e-05    -4.126    -4.916    -0.790     18.29
   HSO4-           7.927e-10   5.402e-10    -9.101    -9.267    -0.167     41.84

------------------------------Saturation indices-------------------------------

  Phase               SI** log IAP   log K(323 K,   1 atm)

  Barite            0.00     -9.68   -9.68  BaSO4
  H2O(g)           -0.92     -0.00    0.92  H2O
  Halite           -2.97     -1.35    1.62  NaCl
  Mirabilite       -5.92     -6.29   -0.36  Na2SO4:10H2O
  Thenardite       -5.82     -6.24   -0.42  Na2SO4

**For a gas, SI = log10(fugacity). Fugacity = pressure * phi / 1 atm.
  For ideal gases, phi = 1.

Reaction step 5.

Using solution 1.	
Using pure phase assemblage 1.	
Using reaction 1.	

Reaction 1.	

	  1.000e-01 moles of the following reaction have been added:

	                 Relative
	Reactant            moles

	NaCl                 1.00000

	                 Relative
	Element             moles
	Cl                   1.00000
	Na                   1.00000

-------------------------------Phase assemblage--------------------------------

                                                      Moles in assemblage
Phase               SI  log IAP  log K(T, P)   Initial       Final       Delta

Barite            0.00    -9.68     -9.68    1.000e+01   1.000e+01  -1.079e-05

-----------------------------Solution composition------------------------------

	Elements           Molality       Moles

	Ba                8.562e-05   8.562e-05
	Cl                4.000e-01   4.000e-01
	Na                4.000e-01   4.000e-01
	S                 8.562e-05   8.562e-05

----------------------------Description of solution----------------------------

                                       pH  =   6.588      Charge balance
                                       pe  =   4.000      Adjusted to redox equilibrium
      Specific Conductance (µS/cm,  50°C)  = 57207
                          Density (g/cm³)  =   1.00359
                               Volume (L)  =   1.01974
                        Viscosity (mPa s)  =   0.57016
                        Activity of water  =   0.987
                 Ionic strength (mol/kgw)  =   4.003e-01
                       Mass of water (kg)  =   1.000e+00
                 Total alkalinity (eq/kg)  =   5.363e-16
                         Temperature (°C)  =  50.00
                  Electrical balance (eq)  =   8.467e-11
 Percent error, 100*(Cat-|An|)/(Cat+|An|)  =   0.00
                               Iterations  =   7
                         Gamma iterations  =   3
                      Osmotic coefficient  =   0.92149
                         Density of water  =   0.98803
                                  Total H  = 1.110124e+02
                                  Total O  = 5.550656e+01

----------------------------Distribution of species----------------------------

                                                    MacInnes  MacInnes
                                MacInnes       Log       Log       Log    mole V
   Species          Molality    Activity  Molality  Activity     Gamma   cm³/mol

   OH-             3.304e-07   2.092e-07    -6.481    -6.680    -0.199     -2.64
   H+              3.297e-07   2.582e-07    -6.482    -6.588    -0.106      0.00
   H2O             5.551e+01   9.868e-01     1.744    -0.006     0.000     18.23
Ba            8.562e-05
   Ba+2            8.562e-05   1.817e-05    -4.067    -4.741    -0.673    -10.40
Cl            4.000e-01
   Cl-             4.000e-01   2.645e-01    -0.398    -0.578    -0.180     18.90
Na            4.000e-01
   Na+             4.000e-01   2.854e-01    -0.398    -0.545    -0.147      0.15
S(6)          8.562e-05
   SO4-2           8.562e-05   1.151e-05    -4.067    -4.939    -0.872     18.67
   HSO4-           7.955e-10   5.237e-10    -9.099    -9.281    -0.181     41.92

------------------------------Saturation indices-------------------------------

  Phase               SI** log IAP   log K(323 K,   1 atm)

  Barite            0.00     -9.68   -9.68  BaSO4
  H2O(g)           -0.92     -0.01    0.92  H2O
  Halite           -2.74     -1.12    1.62  NaCl
  Mirabilite       -5.72     -6.09   -0.36  Na2SO4:10H2O
  Thenardite       -5.61     -6.03   -0.42  Na2SO4

**For a gas, SI = log10(fugacity). Fugacity = pressure * phi / 1 atm.
  For ideal gases, phi = 1.

Reaction step 6.

Using solution 1.	
Using pure phase assemblage 1.	
Using reaction 1.	

Reaction 1.	

	  1.000e-01 moles of the following reaction have been added:

	                 Relative
	Reactant            moles

	NaCl                 1.00000

	                 Relative
	Element             moles
	Cl                   1.00000
	Na                   1.00000

-------------------------------Phase assemblage--------------------------------

                                                      Moles in assemblage
Phase               SI  log IAP  log K(T, P)   Initial       Final       Delta

Barite            0.00    -9.68     -9.68    1.000e+01   1.000e+01  -9.410e-06

-----------------------------Solution composition------------------------------

	Elements           Molality       Moles

	Ba                9.503e-05   9.503e-05
	Cl                5.000e-01   5.000e-01
	Na                5.000e-01   5.000e-01
	S                 9.503e-05   9.503e-05

----------------------------Description of solution----------------------------

                                       pH  =   6.578      Charge balance
                                       pe  =   4.000      Adjusted to redox equilibrium
      Specific Conductance (µS/cm,  50°C)  = 69697
                          Density (g/cm³)  =   1.00737
                               Volume (L)  =   1.02172
                        Viscosity (mPa s)  =   0.57600
                        Activity of water  =   0.983
                 Ionic strength (mol/kgw)  =   5.004e-01
                       Mass of water (kg)  =   1.000e+00
                 Total alkalinity (eq/kg)  =   7.607e-16
                         Temperature (°C)  =  50.00
                  Electrical balance (eq)  =   9.730e-11
 Percent error, 100*(Cat-|An|)/(Cat+|An|)  =   0.00
                               Iterations  =   7
                         Gamma iterations  =   3
                      Osmotic coefficient  =   0.92350
                         Density of water  =   0.98803
                                  Total H  = 1.110124e+02
                                  Total O  = 5.550660e+01

----------------------------Distribution of species----------------------------

                                                    MacInnes  MacInnes
                                MacInnes       Log       Log       Log    mole V
   Species          Molality    Activity  Molality  Activity     Gamma   cm³/mol

   OH-             3.327e-07   2.038e-07    -6.478    -6.691    -0.213     -2.45
   H+              3.319e-07   2.641e-07    -6.479    -6.578    -0.099      0.00
   H2O             5.551e+01   9.835e-01     1.744    -0.007     0.000     18.23
Ba            9.503e-05
   Ba+2            9.503e-05   1.916e-05    -4.022    -4.718    -0.696    -10.21
Cl            5.000e-01
   Cl-             5.000e-01   3.231e-01    -0.301    -0.491    -0.190     18.98
Na            5.000e-01
   Na+             5.000e-01   3.541e-01    -0.301    -0.451    -0.150      0.22
S(6)          9.503e-05
   SO4-2           9.503e-05   1.092e-05    -4.022    -4.962    -0.940     19.00
   HSO4-           7.940e-10   5.082e-10    -9.100    -9.294    -0.194     42.00

------------------------------Saturation indices-------------------------------

  Phase               SI** log IAP   log K(323 K,   1 atm)

  Barite            0.00     -9.68   -9.68  BaSO4
  H2O(g)           -0.92     -0.01    0.92  H2O
  Halite           -2.56     -0.94    1.62  NaCl
  Mirabilite       -5.57     -5.94   -0.36  Na2SO4:10H2O
  Thenardite       -5.44     -5.86   -0.42  Na2SO4

**For a gas, SI = log10(fugacity). Fugacity = pressure * phi / 1 atm.
  For ideal gases, phi = 1.

Reaction step 7.

Using solution 1.	
Using pure phase assemblage 1.	
Using reaction 1.	

Reaction 1.	

	  5.000e-01 moles of the following reaction have been added:

	                 Relative
	Reactant            moles

	NaCl                 1.00000

	                 Relative
	Element             moles
	Cl                   1.00000
	Na                   1.00000

-------------------------------Phase assemblage--------------------------------

                                                      Moles in assemblage
Phase               SI  log IAP  log K(T, P)   Initial       Final       Delta

Barite            0.00    -9.68     -9.68    1.000e+01   1.000e+01  -3.433e-05

-----------------------------Solution composition------------------------------

	Elements           Molality       Moles

	Ba                1.294e-04   1.294e-04
	Cl                1.000e+00   1.000e+00
	Na                1.000e+00   1.000e+00
	S                 1.294e-04   1.294e-04

----------------------------Description of solution----------------------------

                                       pH  =   6.531      Charge balance
                                       pe  =   4.000      Adjusted to redox equilibrium
      Specific Conductance (µS/cm,  50°C)  = 126088
                          Density (g/cm³)  =   1.02579
                               Volume (L)  =   1.03186
                        Viscosity (mPa s)  =   0.60660
                        Activity of water  =   0.967
                 Ionic strength (mol/kgw)  =   1.001e+00
                       Mass of water (kg)  =   1.000e+00
                 Total alkalinity (eq/kg)  =   6.159e-15
                         Temperature (°C)  =  50.00
                  Electrical balance (eq)  =   2.941e-10
 Percent error, 100*(Cat-|An|)/(Cat+|An|)  =   0.00
                               Iterations  =   8
                         Gamma iterations  =   3
                      Osmotic coefficient  =   0.94209
                         Density of water  =   0.98803
                                  Total H  = 1.110124e+02
                                  Total O  = 5.550673e+01

----------------------------Distribution of species----------------------------

                                                    MacInnes  MacInnes
                                MacInnes       Log       Log       Log    mole V
   Species          Molality    Activity  Molality  Activity     Gamma   cm³/mol

   OH-             3.281e-07   1.796e-07    -6.484    -6.746    -0.262     -1.55
   H+              3.273e-07   2.946e-07    -6.485    -6.531    -0.046      0.00
   H2O             5.551e+01   9.666e-01     1.744    -0.015     0.000     18.23
Ba            1.294e-04
   Ba+2            1.294e-04   2.456e-05    -3.888    -4.610    -0.722     -9.54
Cl            1.000e+00
   Cl-             1.000e+00   6.054e-01     0.000    -0.218    -0.218     19.27
Na            1.000e+00
   Na+             1.000e+00   7.131e-01     0.000    -0.147    -0.147      0.47
S(6)          1.294e-04
   SO4-2           1.294e-04   8.516e-06    -3.888    -5.070    -1.182     20.32
   HSO4-           7.641e-10   4.421e-10    -9.117    -9.354    -0.238     42.28

------------------------------Saturation indices-------------------------------

  Phase               SI** log IAP   log K(323 K,   1 atm)

  Barite            0.00     -9.68   -9.68  BaSO4
  H2O(g)           -0.93     -0.01    0.92  H2O
  Halite           -1.98     -0.36    1.62  NaCl
  Mirabilite       -5.15     -5.51   -0.36  Na2SO4:10H2O
  Thenardite       -4.94     -5.36   -0.42  Na2SO4

**For a gas, SI = log10(fugacity). Fugacity = pressure * phi / 1 atm.
  For ideal gases, phi = 1.

Reaction step 8.

Using solution 1.	
Using pure phase assemblage 1.	
Using reaction 1.	

Reaction 1.	

	  5.000e-01 moles of the following reaction have been added:

	                 Relative
	Reactant            moles

	NaCl                 1.00000

	                 Relative
	Element             moles
	Cl                   1.00000
	Na                   1.00000

-------------------------------Phase assemblage--------------------------------

                                                      Moles in assemblage
Phase               SI  log IAP  log K(T, P)   Initial       Final       Delta

Barite            0.00    -9.68     -9.68    1.000e+01   1.000e+01  -2.176e-05

-----------------------------Solution composition------------------------------

	Elements           Molality       Moles

	Ba                1.511e-04   1.511e-04
	Cl                1.500e+00   1.500e+00
	Na                1.500e+00   1.500e+00
	S                 1.511e-04   1.511e-04

----------------------------Description of solution----------------------------

                                       pH  =   6.485      Charge balance
                                       pe  =   4.000      Adjusted to redox equilibrium
      Specific Conductance (µS/cm,  50°C)  = 174234
                          Density (g/cm³)  =   1.04354
                               Volume (L)  =   1.04231
                        Viscosity (mPa s)  =   0.63989
                        Activity of water  =   0.949
                 Ionic strength (mol/kgw)  =   1.501e+00
                       Mass of water (kg)  =   1.000e+00
                 Total alkalinity (eq/kg)  =   1.201e-14
                         Temperature (°C)  =  50.00
                  Electrical balance (eq)  =   3.905e-10
 Percent error, 100*(Cat-|An|)/(Cat+|An|)  =   0.00
                               Iterations  =   7
                         Gamma iterations  =   3
                      Osmotic coefficient  =   0.96701
                         Density of water  =   0.98803
                                  Total H  = 1.110124e+02
                                  Total O  = 5.550682e+01

----------------------------Distribution of species----------------------------

                                                    MacInnes  MacInnes
                                MacInnes       Log       Log       Log    mole V
   Species          Molality    Activity  Molality  Activity     Gamma   cm³/mol

   OH-             3.122e-07   1.586e-07    -6.506    -6.800    -0.294     -0.74
   H+              3.114e-07   3.276e-07    -6.507    -6.485     0.022      0.00
   H2O             5.551e+01   9.491e-01     1.744    -0.023     0.000     18.23
Ba            1.511e-04
   Ba+2            1.511e-04   3.083e-05    -3.821    -4.511    -0.690     -9.05
Cl            1.500e+00
   Cl-             1.500e+00   8.827e-01     0.176    -0.054    -0.230     19.48
Na            1.500e+00
   Na+             1.500e+00   1.114e+00     0.176     0.047    -0.129      0.65
S(6)          1.511e-04
   SO4-2           1.511e-04   6.784e-06    -3.821    -5.168    -1.348     21.33
   HSO4-           7.289e-10   3.918e-10    -9.137    -9.407    -0.270     42.47

------------------------------Saturation indices-------------------------------

  Phase               SI** log IAP   log K(323 K,   1 atm)

  Barite            0.00     -9.68   -9.68  BaSO4
  H2O(g)           -0.94     -0.02    0.92  H2O
  Halite           -1.62     -0.01    1.62  NaCl
  Mirabilite       -4.94     -5.30   -0.36  Na2SO4:10H2O
  Thenardite       -4.65     -5.07   -0.42  Na2SO4

**For a gas, SI = log10(fugacity). Fugacity = pressure * phi / 1 atm.
  For ideal gases, phi = 1.

Reaction step 9.

Using solution 1.	
Using pure phase assemblage 1.	
Using reaction 1.	

Reaction 1.	

	  5.000e-01 moles of the following reaction have been added:

	                 Relative
	Reactant            moles

	NaCl                 1.00000

	                 Relative
	Element             moles
	Cl                   1.00000
	Na                   1.00000

-------------------------------Phase assemblage--------------------------------

                                                      Moles in assemblage
Phase               SI  log IAP  log K(T, P)   Initial       Final       Delta

Barite            0.00    -9.68     -9.68    1.000e+01   1.000e+01  -1.468e-05

-----------------------------Solution composition------------------------------

	Elements           Molality       Moles

	Ba                1.658e-04   1.658e-04
	Cl                2.000e+00   2.000e+00
	Na                2.000e+00   2.000e+00
	S                 1.658e-04   1.658e-04

----------------------------Description of solution----------------------------

                                       pH  =   6.439      Charge balance
                                       pe  =   4.000      Adjusted to redox equilibrium
      Specific Conductance (µS/cm,  50°C)  = 215410
                          Density (g/cm³)  =   1.06070
                               Volume (L)  =   1.05301
                        Viscosity (mPa s)  =   0.67609
                        Activity of water  =   0.931
                 Ionic strength (mol/kgw)  =   2.001e+00
                       Mass of water (kg)  =   1.000e+00
                 Total alkalinity (eq/kg)  =   1.858e-14
                         Temperature (°C)  =  50.00
                  Electrical balance (eq)  =   4.359e-10
 Percent error, 100*(Cat-|An|)/(Cat+|An|)  =   0.00
                               Iterations  =   7
                         Gamma iterations  =   3
                      Osmotic coefficient  =   0.99520
                         Density of water  =   0.98803
                                  Total H  = 1.110124e+02
                                  Total O  = 5.550688e+01

----------------------------Distribution of species----------------------------

                                                    MacInnes  MacInnes
                                MacInnes       Log       Log       Log    mole V
   Species          Molality    Activity  Molality  Activity     Gamma   cm³/mol

   OH-             2.923e-07   1.399e-07    -6.534    -6.854    -0.320      0.03
   H+              2.916e-07   3.642e-07    -6.535    -6.439     0.097      0.00
   H2O             5.551e+01   9.308e-01     1.744    -0.031     0.000     18.23
Ba            1.658e-04
   Ba+2            1.658e-04   3.797e-05    -3.780    -4.421    -0.640     -8.66
Cl            2.000e+00
   Cl-             2.000e+00   1.163e+00     0.301     0.066    -0.235     19.65
Na            2.000e+00
   Na+             2.000e+00   1.572e+00     0.301     0.196    -0.105      0.80
S(6)          1.658e-04
   SO4-2           1.658e-04   5.507e-06    -3.780    -5.259    -1.479     22.19
   HSO4-           7.008e-10   3.536e-10    -9.154    -9.452    -0.297     42.63

------------------------------Saturation indices-------------------------------

  Phase               SI** log IAP   log K(323 K,   1 atm)

  Barite            0.00     -9.68   -9.68  BaSO4
  H2O(g)           -0.95     -0.03    0.92  H2O
  Halite           -1.35      0.26    1.62  NaCl
  Mirabilite       -4.81     -5.18   -0.36  Na2SO4:10H2O
  Thenardite       -4.44     -4.87   -0.42  Na2SO4

**For a gas, SI = log10(fugacity). Fugacity = pressure * phi / 1 atm.
  For ideal gases, phi = 1.

Reaction step 10.

Using solution 1.	
Using pure phase assemblage 1.	
Using reaction 1.	

Reaction 1.	

	  5.000e-01 moles of the following reaction have been added:

	                 Relative
	Reactant            moles

	NaCl                 1.00000

	                 Relative
	Element             moles
	Cl                   1.00000
	Na                   1.00000

-------------------------------Phase assemblage--------------------------------

                                                      Moles in assemblage
Phase               SI  log IAP  log K(T, P)   Initial       Final       Delta

Barite            0.00    -9.68     -9.68    1.000e+01   1.000e+01  -1.055e-05

-----------------------------Solution composition------------------------------

	Elements           Molality       Moles

	Ba                1.764e-04   1.764e-04
	Cl                2.500e+00   2.500e+00
	Na                2.500e+00   2.500e+00
	S                 1.764e-04   1.764e-04

----------------------------Description of solution----------------------------

                                       pH  =   6.392      Charge balance
                                       pe  =   4.000      Adjusted to redox equilibrium
      Specific Conductance (µS/cm,  50°C)  = 250428
                          Density (g/cm³)  =   1.07731
                               Volume (L)  =   1.06390
                        Viscosity (mPa s)  =   0.71531
                        Activity of water  =   0.912
                 Ionic strength (mol/kgw)  =   2.501e+00
                       Mass of water (kg)  =   1.000e+00
                 Total alkalinity (eq/kg)  =   2.526e-14
                         Temperature (°C)  =  50.00
                  Electrical balance (eq)  =   4.353e-10
 Percent error, 100*(Cat-|An|)/(Cat+|An|)  =   0.00
                               Iterations  =   7
                         Gamma iterations  =   3
                      Osmotic coefficient  =   1.02556
                         Density of water  =   0.98803
                                  Total H  = 1.110124e+02
                                  Total O  = 5.550692e+01

----------------------------Distribution of species----------------------------

                                                    MacInnes  MacInnes
                                MacInnes       Log       Log       Log    mole V
   Species          Molality    Activity  Molality  Activity     Gamma   cm³/mol

   OH-             2.711e-07   1.232e-07    -6.567    -6.909    -0.343      0.78
   H+              2.704e-07   4.051e-07    -6.568    -6.392     0.176      0.00
   H2O             5.551e+01   9.118e-01     1.744    -0.040     0.000     18.23
Ba            1.764e-04
   Ba+2            1.764e-04   4.595e-05    -3.754    -4.338    -0.584     -8.32
Cl            2.500e+00
   Cl-             2.500e+00   1.451e+00     0.398     0.162    -0.236     19.79
Na            2.500e+00
   Na+             2.500e+00   2.101e+00     0.398     0.322    -0.076      0.93
S(6)          1.764e-04
   SO4-2           1.764e-04   4.552e-06    -3.754    -5.342    -1.588     22.94
   HSO4-           6.830e-10   3.250e-10    -9.166    -9.488    -0.323     42.76

------------------------------Saturation indices-------------------------------

  Phase               SI** log IAP   log K(323 K,   1 atm)

  Barite            0.00     -9.68   -9.68  BaSO4
  H2O(g)           -0.96     -0.04    0.92  H2O
  Halite           -1.13      0.48    1.62  NaCl
  Mirabilite       -4.73     -5.10   -0.36  Na2SO4:10H2O
  Thenardite       -4.27     -4.70   -0.42  Na2SO4

**For a gas, SI = log10(fugacity). Fugacity = pressure * phi / 1 atm.
  For ideal gases, phi = 1.

Reaction step 11.

Using solution 1.	
Using pure phase assemblage 1.	
Using reaction 1.	

Reaction 1.	

	  5.000e-01 moles of the following reaction have been added:

	                 Relative
	Reactant            moles

	NaCl                 1.00000

	                 Relative
	Element             moles
	Cl                   1.00000
	Na                   1.00000

-------------------------------Phase assemblage--------------------------------

                                                      Moles in assemblage
Phase               SI  log IAP  log K(T, P)   Initial       Final       Delta

Barite            0.00    -9.68     -9.68    1.000e+01   1.000e+01  -8.370e-06

-----------------------------Solution composition------------------------------

	Elements           Molality       Moles

	Ba                1.847e-04   1.847e-04
	Cl                3.000e+00   3.000e+00
	Na                3.000e+00   3.000e+00
	S                 1.847e-04   1.847e-04

----------------------------Description of solution----------------------------

                                       pH  =   6.346      Charge balance
                                       pe  =   4.000      Adjusted to redox equilibrium
      Specific Conductance (µS/cm,  50°C)  = 279949
                          Density (g/cm³)  =   1.09341
                               Volume (L)  =   1.07496
                        Viscosity (mPa s)  =   0.75762
                        Activity of water  =   0.892
                 Ionic strength (mol/kgw)  =   3.001e+00
                       Mass of water (kg)  =   1.000e+00
                 Total alkalinity (eq/kg)  =   3.205e-14
                         Temperature (°C)  =  50.00
                  Electrical balance (eq)  =   3.804e-10
 Percent error, 100*(Cat-|An|)/(Cat+|An|)  =   0.00
                               Iterations  =   7
                         Gamma iterations  =   3
                      Osmotic coefficient  =   1.05748
                         Density of water  =   0.98803
                                  Total H  = 1.110124e+02
                                  Total O  = 5.550696e+01

----------------------------Distribution of species----------------------------

                                                    MacInnes  MacInnes
                                MacInnes       Log       Log       Log    mole V
   Species          Molality    Activity  Molality  Activity     Gamma   cm³/mol

   OH-             2.499e-07   1.083e-07    -6.602    -6.966    -0.363      1.50
   H+              2.492e-07   4.510e-07    -6.603    -6.346     0.258      0.00
   H2O             5.551e+01   8.920e-01     1.744    -0.050     0.000     18.23
Ba            1.847e-04
   Ba+2            1.847e-04   5.462e-05    -3.733    -4.263    -0.529     -8.02
Cl            3.000e+00
   Cl-             3.000e+00   1.749e+00     0.477     0.243    -0.234     19.91
Na            3.000e+00
   Na+             3.000e+00   2.716e+00     0.477     0.434    -0.043      1.04
S(6)          1.847e-04
   SO4-2           1.847e-04   3.829e-06    -3.733    -5.417    -1.683     23.62
   HSO4-           6.765e-10   3.044e-10    -9.170    -9.517    -0.347     42.87

------------------------------Saturation indices-------------------------------

  Phase               SI** log IAP   log K(323 K,   1 atm)

  Barite            0.00     -9.68   -9.68  BaSO4
  H2O(g)           -0.97     -0.05    0.92  H2O
  Halite           -0.94      0.68    1.62  NaCl
  Mirabilite       -4.68     -5.05   -0.36  Na2SO4:10H2O
  Thenardite       -4.13     -4.55   -0.42  Na2SO4

**For a gas, SI = log10(fugacity). Fugacity = pressure * phi / 1 atm.
  For ideal gases, phi = 1.

Reaction step 12.

Using solution 1.	
Using pure phase assemblage 1.	
Using reaction 1.	

Reaction 1.	

	  5.000e-01 moles of the following reaction have been added:

	                 Relative
	Reactant            moles

	NaCl                 1.00000

	                 Relative
	Element             moles
	Cl                   1.00000
	Na                   1.00000

-------------------------------Phase assemblage--------------------------------

                                                      Moles in assemblage
Phase               SI  log IAP  log K(T, P)   Initial       Final       Delta

Barite            0.00    -9.68     -9.68    1.000e+01   1.000e+01  -7.581e-06

-----------------------------Solution composition------------------------------

	Elements           Molality       Moles

	Ba                1.923e-04   1.923e-04
	Cl                3.500e+00   3.500e+00
	Na                3.500e+00   3.500e+00
	S                 1.923e-04   1.923e-04

----------------------------Description of solution----------------------------

                                       pH  =   6.299      Charge balance
                                       pe  =   4.000      Adjusted to redox equilibrium
      Specific Conductance (µS/cm,  50°C)  = 304568
                          Density (g/cm³)  =   1.10903
                               Volume (L)  =   1.08617
                        Viscosity (mPa s)  =   0.80306
                        Activity of water  =   0.872
                 Ionic strength (mol/kgw)  =   3.501e+00
                       Mass of water (kg)  =   1.000e+00
                 Total alkalinity (eq/kg)  =   3.927e-14
                         Temperature (°C)  =  50.00
                  Electrical balance (eq)  =   2.560e-10
 Percent error, 100*(Cat-|An|)/(Cat+|An|)  =   0.00
                               Iterations  =   7
                         Gamma iterations  =   3
                      Osmotic coefficient  =   1.09054
                         Density of water  =   0.98803
                                  Total H  = 1.110124e+02
                                  Total O  = 5.550699e+01

----------------------------Distribution of species----------------------------

                                                    MacInnes  MacInnes
                                MacInnes       Log       Log       Log    mole V
   Species          Molality    Activity  Molality  Activity     Gamma   cm³/mol

   OH-             2.294e-07   9.492e-08    -6.639    -7.023    -0.383      2.21
   H+              2.287e-07   5.025e-07    -6.641    -6.299     0.342      0.00
   H2O             5.551e+01   8.715e-01     1.744    -0.060     0.000     18.23
Ba            1.923e-04
   Ba+2            1.923e-04   6.380e-05    -3.716    -4.195    -0.479     -7.74
Cl            3.500e+00
   Cl-             3.500e+00   2.058e+00     0.544     0.313    -0.231     20.01
Na            3.500e+00
   Na+             3.500e+00   3.433e+00     0.544     0.536    -0.008      1.14
S(6)          1.923e-04
   SO4-2           1.923e-04   3.278e-06    -3.716    -5.484    -1.768     24.25
   HSO4-           6.822e-10   2.903e-10    -9.166    -9.537    -0.371     42.96

------------------------------Saturation indices-------------------------------

  Phase               SI** log IAP   log K(323 K,   1 atm)

  Barite            0.00     -9.68   -9.68  BaSO4
  H2O(g)           -0.98     -0.06    0.92  H2O
  Halite           -0.77      0.85    1.62  NaCl
  Mirabilite       -4.65     -5.01   -0.36  Na2SO4:10H2O
  Thenardite       -3.99     -4.41   -0.42  Na2SO4

**For a gas, SI = log10(fugacity). Fugacity = pressure * phi / 1 atm.
  For ideal gases, phi = 1.

Reaction step 13.

Using solution 1.	
Using pure phase assemblage 1.	
Using reaction 1.	

Reaction 1.	

	  5.000e-01 moles of the following reaction have been added:

	                 Relative
	Reactant            moles

	NaCl                 1.00000

	                 Relative
	Element             moles
	Cl                   1.00000
	Na                   1.00000

-------------------------------Phase assemblage--------------------------------

                                                      Moles in assemblage
Phase               SI  log IAP  log K(T, P)   Initial       Final       Delta

Barite            0.00    -9.68     -9.68    1.000e+01   1.000e+01  -7.857e-06

-----------------------------Solution composition------------------------------

	Elements           Molality       Moles

	Ba                2.002e-04   2.002e-04
	Cl                4.000e+00   4.000e+00
	Na                4.000e+00   4.000e+00
	S                 2.002e-04   2.002e-04

----------------------------Description of solution----------------------------

                                       pH  =   6.251      Charge balance
                                       pe  =   4.000      Adjusted to redox equilibrium
      Specific Conductance (µS/cm,  50°C)  = 324834
                          Density (g/cm³)  =   1.12419
                               Volume (L)  =   1.09751
                        Viscosity (mPa s)  =   0.85170
                        Activity of water  =   0.850
                 Ionic strength (mol/kgw)  =   4.001e+00
                       Mass of water (kg)  =   1.000e+00
                 Total alkalinity (eq/kg)  =   4.592e-14
                         Temperature (°C)  =  50.00
                  Electrical balance (eq)  =   4.438e-11
 Percent error, 100*(Cat-|An|)/(Cat+|An|)  =   0.00
                               Iterations  =   6
                         Gamma iterations  =   3
                      Osmotic coefficient  =   1.12444
                         Density of water  =   0.98803
                                  Total H  = 1.110124e+02
                                  Total O  = 5.550702e+01

----------------------------Distribution of species----------------------------

                                                    MacInnes  MacInnes
                                MacInnes       Log       Log       Log    mole V
   Species          Molality    Activity  Molality  Activity     Gamma   cm³/mol

   OH-             2.100e-07   8.303e-08    -6.678    -7.081    -0.403      2.91
   H+              2.093e-07   5.606e-07    -6.679    -6.251     0.428      0.00
   H2O             5.551e+01   8.504e-01     1.744    -0.070     0.000     18.23
Ba            2.002e-04
   Ba+2            2.002e-04   7.324e-05    -3.699    -4.135    -0.437     -7.48
Cl            4.000e+00
   Cl-             4.000e+00   2.379e+00     0.602     0.376    -0.226     20.11
Na            4.000e+00
   Na+             4.000e+00   4.271e+00     0.602     0.631     0.028      1.24
S(6)          2.002e-04
   SO4-2           2.002e-04   2.856e-06    -3.699    -5.544    -1.846     24.83
   HSO4-           7.009e-10   2.822e-10    -9.154    -9.549    -0.395     43.04

------------------------------Saturation indices-------------------------------

  Phase               SI** log IAP   log K(323 K,   1 atm)

  Barite            0.00     -9.68   -9.68  BaSO4
  H2O(g)           -0.99     -0.07    0.92  H2O
  Halite           -0.61      1.01    1.62  NaCl
  Mirabilite       -4.62     -4.99   -0.36  Na2SO4:10H2O
  Thenardite       -3.86     -4.28   -0.42  Na2SO4

**For a gas, SI = log10(fugacity). Fugacity = pressure * phi / 1 atm.
  For ideal gases, phi = 1.

Reaction step 14.

Using solution 1.	
Using pure phase assemblage 1.	
Using reaction 1.	

Reaction 1.	

	  5.000e-01 moles of the following reaction have been added:

	                 Relative
	Reactant            moles

	NaCl                 1.00000

	                 Relative
	Element             moles
	Cl                   1.00000
	Na                   1.00000

-------------------------------Phase assemblage--------------------------------

                                                      Moles in assemblage
Phase               SI  log IAP  log K(T, P)   Initial       Final       Delta

Barite            0.00    -9.68     -9.68    1.000e+01   1.000e+01  -9.008e-06

-----------------------------Solution composition------------------------------

	Elements           Molality       Moles

	Ba                2.092e-04   2.092e-04
	Cl                4.500e+00   4.500e+00
	Na                4.500e+00   4.500e+00
	S                 2.092e-04   2.092e-04

----------------------------Description of solution----------------------------

                                       pH  =   6.203      Charge balance
                                       pe  =   4.000      Adjusted to redox equilibrium
      Specific Conductance (µS/cm,  50°C)  = 341251
                          Density (g/cm³)  =   1.13892
                               Volume (L)  =   1.10898
                        Viscosity (mPa s)  =   0.90354
                        Activity of water  =   0.829
                 Ionic strength (mol/kgw)  =   4.501e+00
                       Mass of water (kg)  =   1.000e+00
                 Total alkalinity (eq/kg)  =   5.385e-14
                         Temperature (°C)  =  50.00
                  Electrical balance (eq)  =  -2.698e-10
 Percent error, 100*(Cat-|An|)/(Cat+|An|)  =  -0.00
                               Iterations  =   6
                         Gamma iterations  =   3
                      Osmotic coefficient  =   1.15894
                         Density of water  =   0.98803
                                  Total H  = 1.110124e+02
                                  Total O  = 5.550705e+01

----------------------------Distribution of species----------------------------

                                                    MacInnes  MacInnes
                                MacInnes       Log       Log       Log    mole V
   Species          Molality    Activity  Molality  Activity     Gamma   cm³/mol

   OH-             1.918e-07   7.244e-08    -6.717    -7.140    -0.423      3.60
   H+              1.910e-07   6.262e-07    -6.719    -6.203     0.516      0.00
   H2O             5.551e+01   8.287e-01     1.744    -0.082     0.000     18.23
Ba            2.092e-04
   Ba+2            2.092e-04   8.262e-05    -3.679    -4.083    -0.403     -7.24
Cl            4.500e+00
   Cl-             4.500e+00   2.713e+00     0.653     0.433    -0.220     20.19
Na            4.500e+00
   Na+             4.500e+00   5.250e+00     0.653     0.720     0.067      1.33
S(6)          2.092e-04
   SO4-2           2.092e-04   2.531e-06    -3.679    -5.597    -1.917     25.38
   HSO4-           7.344e-10   2.794e-10    -9.134    -9.554    -0.420     43.12

------------------------------Saturation indices-------------------------------

  Phase               SI** log IAP   log K(323 K,   1 atm)

  Barite            0.00     -9.68   -9.68  BaSO4
  H2O(g)           -1.00     -0.08    0.92  H2O
  Halite           -0.46      1.15    1.62  NaCl
  Mirabilite       -4.61     -4.97   -0.36  Na2SO4:10H2O
  Thenardite       -3.73     -4.16   -0.42  Na2SO4

**For a gas, SI = log10(fugacity). Fugacity = pressure * phi / 1 atm.
  For ideal gases, phi = 1.

Reaction step 15.

Using solution 1.	
Using pure phase assemblage 1.	
Using reaction 1.	

Reaction 1.	

	  5.000e-01 moles of the following reaction have been added:

	                 Relative
	Reactant            moles

	NaCl                 1.00000

	                 Relative
	Element             moles
	Cl                   1.00000
	Na                   1.00000

-------------------------------Phase assemblage--------------------------------

                                                      Moles in assemblage
Phase               SI  log IAP  log K(T, P)   Initial       Final       Delta

Barite            0.00    -9.68     -9.68    1.000e+01   1.000e+01  -1.095e-05

-----------------------------Solution composition------------------------------

	Elements           Molality       Moles

	Ba                2.201e-04   2.201e-04
	Cl                5.000e+00   5.000e+00
	Na                5.000e+00   5.000e+00
	S                 2.201e-04   2.201e-04

----------------------------Description of solution----------------------------

                                       pH  =   6.155      Charge balance
                                       pe  =   4.000      Adjusted to redox equilibrium
      Specific Conductance (µS/cm,  50°C)  = 354283
                          Density (g/cm³)  =   1.15324
                               Volume (L)  =   1.12055
                        Viscosity (mPa s)  =   0.95864
                        Activity of water  =   0.806
                 Ionic strength (mol/kgw)  =   5.001e+00
                       Mass of water (kg)  =   1.000e+00
                 Total alkalinity (eq/kg)  =   6.233e-14
                         Temperature (°C)  =  50.00
                  Electrical balance (eq)  =  -6.923e-10
 Percent error, 100*(Cat-|An|)/(Cat+|An|)  =  -0.00
                               Iterations  =   6
                         Gamma iterations  =   3
                      Osmotic coefficient  =   1.19388
                         Density of water  =   0.98803
                                  Total H  = 1.110124e+02
                                  Total O  = 5.550710e+01

----------------------------Distribution of species----------------------------

                                                    MacInnes  MacInnes
                                MacInnes       Log       Log       Log    mole V
   Species          Molality    Activity  Molality  Activity     Gamma   cm³/mol

   OH-             1.749e-07   6.304e-08    -6.757    -7.200    -0.443      4.29
   H+              1.741e-07   7.002e-07    -6.759    -6.155     0.604      0.00
   H2O             5.551e+01   8.065e-01     1.744    -0.093     0.000     18.23
Ba            2.201e-04
   Ba+2            2.201e-04   9.159e-05    -3.657    -4.038    -0.381     -7.01
Cl            5.000e+00
   Cl-             5.000e+00   3.061e+00     0.699     0.486    -0.213     20.27
Na            5.000e+00
   Na+             5.000e+00   6.395e+00     0.699     0.806     0.107      1.42
S(6)          2.201e-04
   SO4-2           2.201e-04   2.283e-06    -3.657    -5.641    -1.984     25.90
   HSO4-           7.850e-10   2.818e-10    -9.105    -9.550    -0.445     43.18

------------------------------Saturation indices-------------------------------

  Phase               SI** log IAP   log K(323 K,   1 atm)

  Barite            0.00     -9.68   -9.68  BaSO4
  H2O(g)           -1.01     -0.09    0.92  H2O
  Halite           -0.32      1.29    1.62  NaCl
  Mirabilite       -4.60     -4.96   -0.36  Na2SO4:10H2O
  Thenardite       -3.61     -4.03   -0.42  Na2SO4

**For a gas, SI = log10(fugacity). Fugacity = pressure * phi / 1 atm.
  For ideal gases, phi = 1.

------------------
End of simulation.
------------------

------------------------------------
Reading input data for simulation 2.
------------------------------------

