WARNING: Database file from DATABASE keyword is used; command line argument ignored.
   Input file: Barite_MCl2
  Output file: Barite_MCl2.out
Database file: ../database/pitzer.dat

------------------
Reading data base.
------------------

WARNING: Unknown input, no keyword has been specified.
	SOLUTION_MASTER_SPECIES
	SOLUTION_SPECIES
	PHASES
	PITZER
	GAS_BINARY_PARAMETERS
	EXCHANGE_MASTER_SPECIES
	EXCHANGE_SPECIES
	SURFACE_MASTER_SPECIES
	SURFACE_SPECIES
	MEAN_GAMMAS
	END
------------------------------------
Reading input data for simulation 1.
------------------------------------

	DATABASE ../database/pitzer.dat
	SELECTED_OUTPUT 101
	    file                 Barite_MCl2_101.sel
	USER_PUNCH 101
	    headings Mu SC
	    start
	10 PUNCH STR_F$(MU, 20, 12)
	20 PUNCH STR_F$(SC, 20, 10)
	    end
	SOLUTION 1
	 pH 7 charge
	 temp 25
	EQUILIBRIUM_PHASES
	 Barite
	REACTION
	 CaCl2 1
	 0 5*0.1 4*0.5
	INCREMENTAL_REACTIONS true
	USER_GRAPH
	 -headings CaCl2
	 axis_titles "CaCl2 / M" "Barite solubility / M"
	 10 plot_xy tot("Ca"), tot("Ba"), color = Red, symbol = None
	END
-------------------------------------------
Beginning of initial solution calculations.
-------------------------------------------

Initial solution 1.	

-----------------------------Solution composition------------------------------

	Elements           Molality       Moles

	Pure water     

----------------------------Description of solution----------------------------

                                       pH  =   6.997      Charge balance
                                       pe  =   4.000    
      Specific Conductance (µS/cm,  25°C)  = 0
                          Density (g/cm³)  =   0.99704
                               Volume (L)  =   1.00297
                        Viscosity (mPa s)  =   0.89002
                        Activity of water  =   1.000
                 Ionic strength (mol/kgw)  =   1.006e-07
                       Mass of water (kg)  =   1.000e+00
                 Total alkalinity (eq/kg)  =   0.000e+00
                         Temperature (°C)  =  25.00
                  Electrical balance (eq)  =   0.000e+00
 Percent error, 100*(Cat-|An|)/(Cat+|An|)  =   0.00
                               Iterations  =   4
                         Gamma iterations  =   2
                      Osmotic coefficient  =   0.99988
                         Density of water  =   0.99704
                                  Total H  = 1.110124e+02
                                  Total O  = 5.550622e+01

----------------------------Distribution of species----------------------------

                                                    MacInnes  MacInnes
                                MacInnes       Log       Log       Log    mole V
   Species          Molality    Activity  Molality  Activity     Gamma   cm³/mol

   OH-             1.006e-07   1.006e-07    -6.997    -6.997    -0.000     -4.14
   H+              1.006e-07   1.006e-07    -6.997    -6.997    -0.000      0.00
   H2O             5.551e+01   1.000e+00     1.744    -0.000     0.000     18.07

------------------------------Saturation indices-------------------------------

  Phase               SI** log IAP   log K(298 K,   1 atm)

  H2O(g)           -1.50     -0.00    1.50  H2O

**For a gas, SI = log10(fugacity). Fugacity = pressure * phi / 1 atm.
  For ideal gases, phi = 1.

-----------------------------------------
Beginning of batch-reaction calculations.
-----------------------------------------

Reaction step 1.

Using solution 1.	
Using pure phase assemblage 1.	
Using reaction 1.	

Reaction 1.	

	  0.000e+00 moles of the following reaction have been added:

	                 Relative
	Reactant            moles

	CaCl2                1.00000

	                 Relative
	Element             moles
	Ca                   1.00000
	Cl                   2.00000

-------------------------------Phase assemblage--------------------------------

                                                      Moles in assemblage
Phase               SI  log IAP  log K(T, P)   Initial       Final       Delta

Barite            0.00    -9.91     -9.91    1.000e+01   1.000e+01  -1.148e-05

-----------------------------Solution composition------------------------------

	Elements           Molality       Moles

	Ba                1.148e-05   1.148e-05
	S                 1.148e-05   1.148e-05

----------------------------Description of solution----------------------------

                                       pH  =   6.998      Charge balance
                                       pe  =   4.000      Adjusted to redox equilibrium
      Specific Conductance (µS/cm,  25°C)  = 3
                          Density (g/cm³)  =   0.99705
                               Volume (L)  =   1.00297
                        Viscosity (mPa s)  =   0.89012
                        Activity of water  =   1.000
                 Ionic strength (mol/kgw)  =   4.601e-05
                       Mass of water (kg)  =   1.000e+00
                 Total alkalinity (eq/kg)  =  -8.699e-19
                         Temperature (°C)  =  25.00
                  Electrical balance (eq)  =   6.338e-16
 Percent error, 100*(Cat-|An|)/(Cat+|An|)  =   0.00
                               Iterations  =   7
                         Gamma iterations  =   3
                      Osmotic coefficient  =   0.98953
                         Density of water  =   0.99704
                                  Total H  = 1.110124e+02
                                  Total O  = 5.550626e+01

----------------------------Distribution of species----------------------------

                                                    MacInnes  MacInnes
                                MacInnes       Log       Log       Log    mole V
   Species          Molality    Activity  Molality  Activity     Gamma   cm³/mol

   OH-             1.015e-07   1.007e-07    -6.994    -6.997    -0.003     -4.13
   H+              1.014e-07   1.005e-07    -6.994    -6.998    -0.004      0.00
   H2O             5.551e+01   1.000e+00     1.744    -0.000     0.000     18.07
Ba            1.148e-05
   Ba+2            1.148e-05   1.112e-05    -4.940    -4.954    -0.014    -13.71
S(6)          1.148e-05
   SO4-2           1.148e-05   1.112e-05    -4.940    -4.954    -0.014     14.39
   HSO4-           1.096e-10   1.087e-10    -9.960    -9.964    -0.003     40.25

------------------------------Saturation indices-------------------------------

  Phase               SI** log IAP   log K(298 K,   1 atm)

  Barite            0.00     -9.91   -9.91  BaSO4
  H2O(g)           -1.50     -0.00    1.50  H2O

**For a gas, SI = log10(fugacity). Fugacity = pressure * phi / 1 atm.
  For ideal gases, phi = 1.

Reaction step 2.

Using solution 1.	
Using pure phase assemblage 1.	
Using reaction 1.	

Reaction 1.	

	  1.000e-01 moles of the following reaction have been added:

	                 Relative
	Reactant            moles

	CaCl2                1.00000

	                 Relative
	Element             moles
	Ca                   1.00000
	Cl                   2.00000

-------------------------------Phase assemblage--------------------------------

                                                      Moles in assemblage
Phase               SI  log IAP  log K(T, P)   Initial       Final       Delta

Barite            0.00    -9.91     -9.91    1.000e+01   1.000e+01  -5.730e-05

-----------------------------Solution composition------------------------------

	Elements           Molality       Moles

	Ba                6.878e-05   6.878e-05
	Ca                1.000e-01   1.000e-01
	Cl                2.000e-01   2.000e-01
	S                 6.878e-05   6.878e-05

----------------------------Description of solution----------------------------

                                       pH  =   6.898      Charge balance
                                       pe  =   4.000      Adjusted to redox equilibrium
      Specific Conductance (µS/cm,  25°C)  = 19359
                          Density (g/cm³)  =   1.00611
                               Volume (L)  =   1.00497
                        Viscosity (mPa s)  =   0.92333
                        Activity of water  =   0.995
                 Ionic strength (mol/kgw)  =   3.003e-01
                       Mass of water (kg)  =   1.000e+00
                 Total alkalinity (eq/kg)  =  -1.160e-17
                         Temperature (°C)  =  25.00
                  Electrical balance (eq)  =   1.789e-10
 Percent error, 100*(Cat-|An|)/(Cat+|An|)  =   0.00
                               Iterations  =   8
                         Gamma iterations  =   4
                      Osmotic coefficient  =   0.85497
                         Density of water  =   0.99704
                                  Total H  = 1.110124e+02
                                  Total O  = 5.550649e+01

----------------------------Distribution of species----------------------------

                                                    MacInnes  MacInnes
                                MacInnes       Log       Log       Log    mole V
   Species          Molality    Activity  Molality  Activity     Gamma   cm³/mol

   OH-             1.639e-07   7.973e-08    -6.785    -7.098    -0.313     -3.29
   H+              1.638e-07   1.264e-07    -6.786    -6.898    -0.113      0.00
   H2O             5.551e+01   9.954e-01     1.744    -0.002     0.000     18.07
Ba            6.878e-05
   Ba+2            6.878e-05   1.843e-05    -4.163    -4.734    -0.572    -11.80
Ca            1.000e-01
   Ca+2            1.000e-01   2.915e-02    -1.000    -1.535    -0.535    -17.06
Cl            2.000e-01
   Cl-             2.000e-01   1.373e-01    -0.699    -0.862    -0.163     18.55
S(6)          6.878e-05
   SO4-2           6.878e-05   6.706e-06    -4.163    -5.174    -1.011     17.13
   HSO4-           1.109e-10   8.238e-11    -9.955   -10.084    -0.129     40.74

------------------------------Saturation indices-------------------------------

  Phase               SI** log IAP   log K(298 K,   1 atm)

  Anhydrite        -2.46     -6.71   -4.25  CaSO4
  Barite            0.00     -9.91   -9.91  BaSO4
  Gypsum           -2.11     -6.71   -4.60  CaSO4:2H2O
  H2O(g)           -1.50     -0.00    1.50  H2O
  Portlandite     -10.54    -15.73   -5.19  Ca(OH)2

**For a gas, SI = log10(fugacity). Fugacity = pressure * phi / 1 atm.
  For ideal gases, phi = 1.

Reaction step 3.

Using solution 1.	
Using pure phase assemblage 1.	
Using reaction 1.	

Reaction 1.	

	  1.000e-01 moles of the following reaction have been added:

	                 Relative
	Reactant            moles

	CaCl2                1.00000

	                 Relative
	Element             moles
	Ca                   1.00000
	Cl                   2.00000

-------------------------------Phase assemblage--------------------------------

                                                      Moles in assemblage
Phase               SI  log IAP  log K(T, P)   Initial       Final       Delta

Barite            0.00    -9.91     -9.91    1.000e+01   1.000e+01  -2.675e-05

-----------------------------Solution composition------------------------------

	Elements           Molality       Moles

	Ba                9.553e-05   9.553e-05
	Ca                2.000e-01   2.000e-01
	Cl                4.000e-01   4.000e-01
	S                 9.553e-05   9.553e-05

----------------------------Description of solution----------------------------

                                       pH  =   6.829      Charge balance
                                       pe  =   4.000      Adjusted to redox equilibrium
      Specific Conductance (µS/cm,  25°C)  = 35806
                          Density (g/cm³)  =   1.01500
                               Volume (L)  =   1.00712
                        Viscosity (mPa s)  =   0.95302
                        Activity of water  =   0.991
                 Ionic strength (mol/kgw)  =   6.004e-01
                       Mass of water (kg)  =   1.000e+00
                 Total alkalinity (eq/kg)  =   1.691e-16
                         Temperature (°C)  =  25.00
                  Electrical balance (eq)  =   1.172e-09
 Percent error, 100*(Cat-|An|)/(Cat+|An|)  =   0.00
                               Iterations  =   8
                         Gamma iterations  =   3
                      Osmotic coefficient  =   0.86124
                         Density of water  =   0.99704
                                  Total H  = 1.110124e+02
                                  Total O  = 5.550660e+01

----------------------------Distribution of species----------------------------

                                                    MacInnes  MacInnes
                                MacInnes       Log       Log       Log    mole V
   Species          Molality    Activity  Molality  Activity     Gamma   cm³/mol

   OH-             1.866e-07   6.768e-08    -6.729    -7.170    -0.440     -2.75
   H+              1.864e-07   1.482e-07    -6.729    -6.829    -0.100      0.00
   H2O             5.551e+01   9.907e-01     1.744    -0.004     0.000     18.07
Ba            9.553e-05
   Ba+2            9.553e-05   2.194e-05    -4.020    -4.659    -0.639    -11.17
Ca            2.000e-01
   Ca+2            2.000e-01   5.127e-02    -0.699    -1.290    -0.591    -16.75
Cl            4.000e-01
   Cl-             4.000e-01   2.547e-01    -0.398    -0.594    -0.196     18.75
S(6)          9.553e-05
   SO4-2           9.553e-05   5.635e-06    -4.020    -5.249    -1.229     18.24
   HSO4-           1.148e-10   8.117e-11    -9.940   -10.091    -0.151     40.93

------------------------------Saturation indices-------------------------------

  Phase               SI** log IAP   log K(298 K,   1 atm)

  Anhydrite        -2.29     -6.54   -4.25  CaSO4
  Barite            0.00     -9.91   -9.91  BaSO4
  Gypsum           -1.95     -6.55   -4.60  CaSO4:2H2O
  H2O(g)           -1.51     -0.00    1.50  H2O
  Portlandite     -10.44    -15.63   -5.19  Ca(OH)2

**For a gas, SI = log10(fugacity). Fugacity = pressure * phi / 1 atm.
  For ideal gases, phi = 1.

Reaction step 4.

Using solution 1.	
Using pure phase assemblage 1.	
Using reaction 1.	

Reaction 1.	

	  1.000e-01 moles of the following reaction have been added:

	                 Relative
	Reactant            moles

	CaCl2                1.00000

	                 Relative
	Element             moles
	Ca                   1.00000
	Cl                   2.00000

-------------------------------Phase assemblage--------------------------------

                                                      Moles in assemblage
Phase               SI  log IAP  log K(T, P)   Initial       Final       Delta

Barite            0.00    -9.91     -9.91    1.000e+01   1.000e+01  -1.992e-05

-----------------------------Solution composition------------------------------

	Elements           Molality       Moles

	Ba                1.155e-04   1.155e-04
	Ca                3.000e-01   3.000e-01
	Cl                6.000e-01   6.000e-01
	S                 1.155e-04   1.155e-04

----------------------------Description of solution----------------------------

                                       pH  =   6.769      Charge balance
                                       pe  =   4.000      Adjusted to redox equilibrium
      Specific Conductance (µS/cm,  25°C)  = 50866
                          Density (g/cm³)  =   1.02375
                               Volume (L)  =   1.00935
                        Viscosity (mPa s)  =   0.98223
                        Activity of water  =   0.986
                 Ionic strength (mol/kgw)  =   9.005e-01
                       Mass of water (kg)  =   1.000e+00
                 Total alkalinity (eq/kg)  =   4.403e-16
                         Temperature (°C)  =  25.00
                  Electrical balance (eq)  =   1.614e-09
 Percent error, 100*(Cat-|An|)/(Cat+|An|)  =   0.00
                               Iterations  =   7
                         Gamma iterations  =   3
                      Osmotic coefficient  =   0.87578
                         Density of water  =   0.99704
                                  Total H  = 1.110124e+02
                                  Total O  = 5.550668e+01

----------------------------Distribution of species----------------------------

                                                    MacInnes  MacInnes
                                MacInnes       Log       Log       Log    mole V
   Species          Molality    Activity  Molality  Activity     Gamma   cm³/mol

   OH-             2.030e-07   5.861e-08    -6.692    -7.232    -0.540     -2.26
   H+              2.029e-07   1.703e-07    -6.693    -6.769    -0.076      0.00
   H2O             5.551e+01   9.859e-01     1.744    -0.006     0.000     18.07
Ba            1.155e-04
   Ba+2            1.155e-04   2.559e-05    -3.938    -4.592    -0.654    -10.72
Ca            3.000e-01
   Ca+2            3.000e-01   7.439e-02    -0.523    -1.129    -0.606    -16.53
Cl            6.000e-01
   Cl-             6.000e-01   3.663e-01    -0.222    -0.436    -0.214     18.90
S(6)          1.155e-04
   SO4-2           1.155e-04   4.830e-06    -3.938    -5.316    -1.378     19.09
   HSO4-           1.167e-10   7.995e-11    -9.933   -10.097    -0.164     41.06

------------------------------Saturation indices-------------------------------

  Phase               SI** log IAP   log K(298 K,   1 atm)

  Anhydrite        -2.19     -6.44   -4.25  CaSO4
  Barite            0.00     -9.91   -9.91  BaSO4
  Gypsum           -1.86     -6.46   -4.60  CaSO4:2H2O
  H2O(g)           -1.51     -0.01    1.50  H2O
  Portlandite     -10.40    -15.59   -5.19  Ca(OH)2

**For a gas, SI = log10(fugacity). Fugacity = pressure * phi / 1 atm.
  For ideal gases, phi = 1.

Reaction step 5.

Using solution 1.	
Using pure phase assemblage 1.	
Using reaction 1.	

Reaction 1.	

	  1.000e-01 moles of the following reaction have been added:

	                 Relative
	Reactant            moles

	CaCl2                1.00000

	                 Relative
	Element             moles
	Ca                   1.00000
	Cl                   2.00000

-------------------------------Phase assemblage--------------------------------

                                                      Moles in assemblage
Phase               SI  log IAP  log K(T, P)   Initial       Final       Delta

Barite            0.00    -9.91     -9.91    1.000e+01   1.000e+01  -1.594e-05

-----------------------------Solution composition------------------------------

	Elements           Molality       Moles

	Ba                1.314e-04   1.314e-04
	Ca                4.000e-01   4.000e-01
	Cl                8.000e-01   8.000e-01
	S                 1.314e-04   1.314e-04

----------------------------Description of solution----------------------------

                                       pH  =   6.713      Charge balance
                                       pe  =   4.000      Adjusted to redox equilibrium
      Specific Conductance (µS/cm,  25°C)  = 64859
                          Density (g/cm³)  =   1.03240
                               Volume (L)  =   1.01165
                        Viscosity (mPa s)  =   1.01135
                        Activity of water  =   0.981
                 Ionic strength (mol/kgw)  =   1.201e+00
                       Mass of water (kg)  =   1.000e+00
                 Total alkalinity (eq/kg)  =   8.120e-16
                         Temperature (°C)  =  25.00
                  Electrical balance (eq)  =   1.862e-09
 Percent error, 100*(Cat-|An|)/(Cat+|An|)  =   0.00
                               Iterations  =   7
                         Gamma iterations  =   3
                      Osmotic coefficient  =   0.89415
                         Density of water  =   0.99704
                                  Total H  = 1.110124e+02
                                  Total O  = 5.550674e+01

----------------------------Distribution of species----------------------------

                                                    MacInnes  MacInnes
                                MacInnes       Log       Log       Log    mole V
   Species          Molality    Activity  Molality  Activity     Gamma   cm³/mol

   OH-             2.162e-07   5.130e-08    -6.665    -7.290    -0.625     -1.80
   H+              2.161e-07   1.935e-07    -6.665    -6.713    -0.048      0.00
   H2O             5.551e+01   9.809e-01     1.744    -0.008     0.000     18.07
Ba            1.314e-04
   Ba+2            1.314e-04   2.963e-05    -3.881    -4.528    -0.647    -10.34
Ca            4.000e-01
   Ca+2            4.000e-01   1.001e-01    -0.398    -1.000    -0.602    -16.35
Cl            8.000e-01
   Cl-             8.000e-01   4.755e-01    -0.097    -0.323    -0.226     19.03
S(6)          1.314e-04
   SO4-2           1.314e-04   4.172e-06    -3.881    -5.380    -1.498     19.81
   HSO4-           1.176e-10   7.850e-11    -9.929   -10.105    -0.176     41.18

------------------------------Saturation indices-------------------------------

  Phase               SI** log IAP   log K(298 K,   1 atm)

  Anhydrite        -2.13     -6.38   -4.25  CaSO4
  Barite            0.00     -9.91   -9.91  BaSO4
  Gypsum           -1.80     -6.40   -4.60  CaSO4:2H2O
  H2O(g)           -1.51     -0.01    1.50  H2O
  Portlandite     -10.39    -15.58   -5.19  Ca(OH)2

**For a gas, SI = log10(fugacity). Fugacity = pressure * phi / 1 atm.
  For ideal gases, phi = 1.

Reaction step 6.

Using solution 1.	
Using pure phase assemblage 1.	
Using reaction 1.	

Reaction 1.	

	  1.000e-01 moles of the following reaction have been added:

	                 Relative
	Reactant            moles

	CaCl2                1.00000

	                 Relative
	Element             moles
	Ca                   1.00000
	Cl                   2.00000

-------------------------------Phase assemblage--------------------------------

                                                      Moles in assemblage
Phase               SI  log IAP  log K(T, P)   Initial       Final       Delta

Barite            0.00    -9.91     -9.91    1.000e+01   1.000e+01  -1.323e-05

-----------------------------Solution composition------------------------------

	Elements           Molality       Moles

	Ba                1.446e-04   1.446e-04
	Ca                5.000e-01   5.000e-01
	Cl                1.000e+00   1.000e+00
	S                 1.446e-04   1.446e-04

----------------------------Description of solution----------------------------

                                       pH  =   6.660      Charge balance
                                       pe  =   4.000      Adjusted to redox equilibrium
      Specific Conductance (µS/cm,  25°C)  = 77935
                          Density (g/cm³)  =   1.04094
                               Volume (L)  =   1.01401
                        Viscosity (mPa s)  =   1.04058
                        Activity of water  =   0.976
                 Ionic strength (mol/kgw)  =   1.501e+00
                       Mass of water (kg)  =   1.000e+00
                 Total alkalinity (eq/kg)  =   1.352e-15
                         Temperature (°C)  =  25.00
                  Electrical balance (eq)  =   2.023e-09
 Percent error, 100*(Cat-|An|)/(Cat+|An|)  =   0.00
                               Iterations  =   7
                         Gamma iterations  =   3
                      Osmotic coefficient  =   0.91524
                         Density of water  =   0.99704
                                  Total H  = 1.110124e+02
                                  Total O  = 5.550680e+01

----------------------------Distribution of species----------------------------

                                                    MacInnes  MacInnes
                                MacInnes       Log       Log       Log    mole V
   Species          Molality    Activity  Molality  Activity     Gamma   cm³/mol

   OH-             2.273e-07   4.518e-08    -6.643    -7.345    -0.702     -1.35
   H+              2.272e-07   2.185e-07    -6.644    -6.660    -0.017      0.00
   H2O             5.551e+01   9.756e-01     1.744    -0.011     0.000     18.07
Ba            1.446e-04
   Ba+2            1.446e-04   3.416e-05    -3.840    -4.466    -0.627    -10.01
Ca            5.000e-01
   Ca+2            5.000e-01   1.296e-01    -0.301    -0.888    -0.587    -16.18
Cl            1.000e+00
   Cl-             1.000e+00   5.838e-01     0.000    -0.234    -0.234     19.14
S(6)          1.446e-04
   SO4-2           1.446e-04   3.618e-06    -3.840    -5.441    -1.602     20.43
   HSO4-           1.178e-10   7.688e-11    -9.929   -10.114    -0.185     41.27

------------------------------Saturation indices-------------------------------

  Phase               SI** log IAP   log K(298 K,   1 atm)

  Anhydrite        -2.08     -6.33   -4.25  CaSO4
  Barite            0.00     -9.91   -9.91  BaSO4
  Gypsum           -1.75     -6.35   -4.60  CaSO4:2H2O
  H2O(g)           -1.51     -0.01    1.50  H2O
  Portlandite     -10.39    -15.58   -5.19  Ca(OH)2

**For a gas, SI = log10(fugacity). Fugacity = pressure * phi / 1 atm.
  For ideal gases, phi = 1.

Reaction step 7.

Using solution 1.	
Using pure phase assemblage 1.	
Using reaction 1.	

Reaction 1.	

	  5.000e-01 moles of the following reaction have been added:

	                 Relative
	Reactant            moles

	CaCl2                1.00000

	                 Relative
	Element             moles
	Ca                   1.00000
	Cl                   2.00000

-------------------------------Phase assemblage--------------------------------

                                                      Moles in assemblage
Phase               SI  log IAP  log K(T, P)   Initial       Final       Delta

Barite            0.00    -9.91     -9.91    1.000e+01   1.000e+01  -4.630e-05

-----------------------------Solution composition------------------------------

	Elements           Molality       Moles

	Ba                1.909e-04   1.909e-04
	Ca                1.000e+00   1.000e+00
	Cl                2.000e+00   2.000e+00
	S                 1.909e-04   1.909e-04

----------------------------Description of solution----------------------------

                                       pH  =   6.415      Charge balance
                                       pe  =   4.000      Adjusted to redox equilibrium
      Specific Conductance (µS/cm,  25°C)  = 131953
                          Density (g/cm³)  =   1.08226
                               Volume (L)  =   1.02658
                        Viscosity (mPa s)  =   1.19382
                        Activity of water  =   0.945
                 Ionic strength (mol/kgw)  =   3.001e+00
                       Mass of water (kg)  =   1.000e+00
                 Total alkalinity (eq/kg)  =   1.677e-15
                         Temperature (°C)  =  25.00
                  Electrical balance (eq)  =   2.024e-09
 Percent error, 100*(Cat-|An|)/(Cat+|An|)  =   0.00
                               Iterations  =  10
                         Gamma iterations  =   4
                      Osmotic coefficient  =   1.04827
                         Density of water  =   0.99704
                                  Total H  = 1.110124e+02
                                  Total O  = 5.550698e+01

----------------------------Distribution of species----------------------------

                                                    MacInnes  MacInnes
                                MacInnes       Log       Log       Log    mole V
   Species          Molality    Activity  Molality  Activity     Gamma   cm³/mol

   OH-             2.649e-07   2.489e-08    -6.577    -7.604    -1.027      0.77
   H+              2.648e-07   3.843e-07    -6.577    -6.415     0.162      0.00
   H2O             5.551e+01   9.449e-01     1.744    -0.025     0.000     18.07
Ba            1.909e-04
   Ba+2            1.909e-04   6.779e-05    -3.719    -4.169    -0.450     -8.74
Ca            1.000e+00
   Ca+2            1.000e+00   3.816e-01     0.000    -0.418    -0.418    -15.48
Cl            2.000e+00
   Cl-             2.000e+00   1.140e+00     0.301     0.057    -0.244     19.55
S(6)          1.909e-04
   SO4-2           1.909e-04   1.823e-06    -3.719    -5.739    -2.020     22.88
   HSO4-           1.142e-10   6.813e-11    -9.942   -10.167    -0.224     41.62

------------------------------Saturation indices-------------------------------

  Phase               SI** log IAP   log K(298 K,   1 atm)

  Anhydrite        -1.91     -6.16   -4.25  CaSO4
  Barite            0.00     -9.91   -9.91  BaSO4
  Gypsum           -1.61     -6.21   -4.60  CaSO4:2H2O
  H2O(g)           -1.53     -0.02    1.50  H2O
  Portlandite     -10.44    -15.63   -5.19  Ca(OH)2

**For a gas, SI = log10(fugacity). Fugacity = pressure * phi / 1 atm.
  For ideal gases, phi = 1.

Reaction step 8.

Using solution 1.	
Using pure phase assemblage 1.	
Using reaction 1.	

Reaction 1.	

	  5.000e-01 moles of the following reaction have been added:

	                 Relative
	Reactant            moles

	CaCl2                1.00000

	                 Relative
	Element             moles
	Ca                   1.00000
	Cl                   2.00000

-------------------------------Phase assemblage--------------------------------

                                                      Moles in assemblage
Phase               SI  log IAP  log K(T, P)   Initial       Final       Delta

Barite            0.00    -9.91     -9.91    1.000e+01   1.000e+01  -4.080e-05

-----------------------------Solution composition------------------------------

	Elements           Molality       Moles

	Ba                2.317e-04   2.317e-04
	Ca                1.500e+00   1.500e+00
	Cl                3.000e+00   3.000e+00
	S                 2.317e-04   2.317e-04

----------------------------Description of solution----------------------------

                                       pH  =   6.180      Charge balance
                                       pe  =   4.000      Adjusted to redox equilibrium
      Specific Conductance (µS/cm,  25°C)  = 169790
                          Density (g/cm³)  =   1.12142
                               Volume (L)  =   1.04022
                        Viscosity (mPa s)  =   1.37186
                        Activity of water  =   0.907
                 Ionic strength (mol/kgw)  =   4.501e+00
                       Mass of water (kg)  =   1.000e+00
                 Total alkalinity (eq/kg)  =   1.430e-15
                         Temperature (°C)  =  25.00
                  Electrical balance (eq)  =   2.026e-09
 Percent error, 100*(Cat-|An|)/(Cat+|An|)  =   0.00
                               Iterations  =   9
                         Gamma iterations  =   4
                      Osmotic coefficient  =   1.21028
                         Density of water  =   0.99704
                                  Total H  = 1.110124e+02
                                  Total O  = 5.550714e+01

----------------------------Distribution of species----------------------------

                                                    MacInnes  MacInnes
                                MacInnes       Log       Log       Log    mole V
   Species          Molality    Activity  Molality  Activity     Gamma   cm³/mol

   OH-             2.883e-07   1.389e-08    -6.540    -7.857    -1.317      2.77
   H+              2.882e-07   6.604e-07    -6.540    -6.180     0.360      0.00
   H2O             5.551e+01   9.065e-01     1.744    -0.043     0.000     18.07
Ba            2.317e-04
   Ba+2            2.317e-04   1.303e-04    -3.635    -3.885    -0.250     -7.77
Ca            1.500e+00
   Ca+2            1.500e+00   1.026e+00     0.176     0.011    -0.165    -14.86
Cl            3.000e+00
   Cl-             3.000e+00   1.754e+00     0.477     0.244    -0.233     19.85
S(6)          2.317e-04
   SO4-2           2.317e-04   9.489e-07    -3.635    -6.023    -2.388     24.75
   HSO4-           1.094e-10   6.092e-11    -9.961   -10.215    -0.254     41.86

------------------------------Saturation indices-------------------------------

  Phase               SI** log IAP   log K(298 K,   1 atm)

  Anhydrite        -1.76     -6.01   -4.25  CaSO4
  Barite            0.00     -9.91   -9.91  BaSO4
  Gypsum           -1.50     -6.10   -4.60  CaSO4:2H2O
  H2O(g)           -1.55     -0.04    1.50  H2O
  Portlandite     -10.51    -15.70   -5.19  Ca(OH)2

**For a gas, SI = log10(fugacity). Fugacity = pressure * phi / 1 atm.
  For ideal gases, phi = 1.

Reaction step 9.

Using solution 1.	
Using pure phase assemblage 1.	
Using reaction 1.	

Reaction 1.	

	  5.000e-01 moles of the following reaction have been added:

	                 Relative
	Reactant            moles

	CaCl2                1.00000

	                 Relative
	Element             moles
	Ca                   1.00000
	Cl                   2.00000

-------------------------------Phase assemblage--------------------------------

                                                      Moles in assemblage
Phase               SI  log IAP  log K(T, P)   Initial       Final       Delta

Barite            0.00    -9.91     -9.91    1.000e+01   1.000e+01  -5.878e-05

-----------------------------Solution composition------------------------------

	Elements           Molality       Moles

	Ba                2.905e-04   2.905e-04
	Ca                2.000e+00   2.000e+00
	Cl                4.000e+00   4.000e+00
	S                 2.905e-04   2.905e-04

----------------------------Description of solution----------------------------

                                       pH  =   5.946      Charge balance
                                       pe  =   4.000      Adjusted to redox equilibrium
      Specific Conductance (µS/cm,  25°C)  = 193283
                          Density (g/cm³)  =   1.15855
                               Volume (L)  =   1.05480
                        Viscosity (mPa s)  =   1.59330
                        Activity of water  =   0.861
                 Ionic strength (mol/kgw)  =   6.001e+00
                       Mass of water (kg)  =   1.000e+00
                 Total alkalinity (eq/kg)  =   1.750e-15
                         Temperature (°C)  =  25.00
                  Electrical balance (eq)  =   2.028e-09
 Percent error, 100*(Cat-|An|)/(Cat+|An|)  =   0.00
                               Iterations  =  10
                         Gamma iterations  =   4
                      Osmotic coefficient  =   1.38859
                         Density of water  =   0.99704
                                  Total H  = 1.110124e+02
                                  Total O  = 5.550738e+01

----------------------------Distribution of species----------------------------

                                                    MacInnes  MacInnes
                                MacInnes       Log       Log       Log    mole V
   Species          Molality    Activity  Molality  Activity     Gamma   cm³/mol

   OH-             3.061e-07   7.694e-09    -6.514    -8.114    -1.600      4.71
   H+              3.060e-07   1.132e-06    -6.514    -5.946     0.568      0.00
   H2O             5.551e+01   8.606e-01     1.744    -0.065     0.000     18.07
Ba            2.905e-04
   Ba+2            2.905e-04   2.410e-04    -3.537    -3.618    -0.081     -6.94
Ca            2.000e+00
   Ca+2            2.000e+00   2.742e+00     0.301     0.438     0.137    -14.27
Cl            4.000e+00
   Cl-             4.000e+00   2.450e+00     0.602     0.389    -0.213     20.09
S(6)          2.905e-04
   SO4-2           2.905e-04   5.129e-07    -3.537    -6.290    -2.753     26.32
   HSO4-           1.073e-10   5.645e-11    -9.969   -10.248    -0.279     42.04

------------------------------Saturation indices-------------------------------

  Phase               SI** log IAP   log K(298 K,   1 atm)

  Anhydrite        -1.60     -5.85   -4.25  CaSO4
  Barite            0.00     -9.91   -9.91  BaSO4
  Gypsum           -1.38     -5.98   -4.60  CaSO4:2H2O
  H2O(g)           -1.57     -0.07    1.50  H2O
  Portlandite     -10.60    -15.79   -5.19  Ca(OH)2

**For a gas, SI = log10(fugacity). Fugacity = pressure * phi / 1 atm.
  For ideal gases, phi = 1.

Reaction step 10.

Using solution 1.	
Using pure phase assemblage 1.	
Using reaction 1.	

Reaction 1.	

	  5.000e-01 moles of the following reaction have been added:

	                 Relative
	Reactant            moles

	CaCl2                1.00000

	                 Relative
	Element             moles
	Ca                   1.00000
	Cl                   2.00000

-------------------------------Phase assemblage--------------------------------

                                                      Moles in assemblage
Phase               SI  log IAP  log K(T, P)   Initial       Final       Delta

Barite            0.00    -9.91     -9.91    1.000e+01   1.000e+01  -1.017e-04

-----------------------------Solution composition------------------------------

	Elements           Molality       Moles

	Ba                3.922e-04   3.922e-04
	Ca                2.500e+00   2.500e+00
	Cl                5.000e+00   5.000e+00
	S                 3.922e-04   3.922e-04

----------------------------Description of solution----------------------------

                                       pH  =   5.711      Charge balance
                                       pe  =   4.000      Adjusted to redox equilibrium
      Specific Conductance (µS/cm,  25°C)  = 204055
                          Density (g/cm³)  =   1.19371
                               Volume (L)  =   1.07024
                        Viscosity (mPa s)  =   1.87833
                        Activity of water  =   0.808
                 Ionic strength (mol/kgw)  =   7.502e+00
                       Mass of water (kg)  =   1.000e+00
                 Total alkalinity (eq/kg)  =   2.604e-15
                         Temperature (°C)  =  25.00
                  Electrical balance (eq)  =   2.033e-09
 Percent error, 100*(Cat-|An|)/(Cat+|An|)  =   0.00
                               Iterations  =  10
                         Gamma iterations  =   4
                      Osmotic coefficient  =   1.57668
                         Density of water  =   0.99704
                                  Total H  = 1.110124e+02
                                  Total O  = 5.550779e+01

----------------------------Distribution of species----------------------------

                                                    MacInnes  MacInnes
                                MacInnes       Log       Log       Log    mole V
   Species          Molality    Activity  Molality  Activity     Gamma   cm³/mol

   OH-             3.223e-07   4.202e-09    -6.492    -8.377    -1.885      6.62
   H+              3.222e-07   1.947e-06    -6.492    -5.711     0.781      0.00
   H2O             5.551e+01   8.081e-01     1.744    -0.093     0.000     18.07
Ba            3.922e-04
   Ba+2            3.922e-04   4.263e-04    -3.406    -3.370     0.036     -6.20
Ca            2.500e+00
   Ca+2            2.500e+00   7.402e+00     0.398     0.869     0.471    -13.70
Cl            5.000e+00
   Cl-             5.000e+00   3.244e+00     0.699     0.511    -0.188     20.30
S(6)          3.922e-04
   SO4-2           3.922e-04   2.900e-07    -3.406    -6.538    -3.131     27.70
   HSO4-           1.098e-10   5.488e-11    -9.959   -10.261    -0.301     42.19

------------------------------Saturation indices-------------------------------

  Phase               SI** log IAP   log K(298 K,   1 atm)

  Anhydrite        -1.42     -5.67   -4.25  CaSO4
  Barite            0.00     -9.91   -9.91  BaSO4
  Gypsum           -1.25     -5.85   -4.60  CaSO4:2H2O
  H2O(g)           -1.60     -0.09    1.50  H2O
  Portlandite     -10.69    -15.88   -5.19  Ca(OH)2

**For a gas, SI = log10(fugacity). Fugacity = pressure * phi / 1 atm.
  For ideal gases, phi = 1.

------------------
End of simulation.
------------------

------------------------------------
Reading input data for simulation 2.
------------------------------------

	USE solution 1
	 USE equilibrium_phases 1
	REACTION
	 MgCl2 1
	 0 5*0.1 4*0.5
	INCREMENTAL_REACTIONS true
	USER_GRAPH
	 -headings MgCl2
	 axis_titles "MCl2 / M" "Barite solubility / M"
	 10 plot_xy tot("Mg"), tot("Ba"), color = Blue, symbol = None
-----------------------------------------
Beginning of batch-reaction calculations.
-----------------------------------------

Reaction step 1.

Using solution 1.	
Using pure phase assemblage 1.	
Using reaction 1.	

Reaction 1.	

	  0.000e+00 moles of the following reaction have been added:

	                 Relative
	Reactant            moles

	MgCl2                1.00000

	                 Relative
	Element             moles
	Cl                   2.00000
	Mg                   1.00000

-------------------------------Phase assemblage--------------------------------

                                                      Moles in assemblage
Phase               SI  log IAP  log K(T, P)   Initial       Final       Delta

Barite            0.00    -9.91     -9.91    1.000e+01   1.000e+01  -1.148e-05

-----------------------------Solution composition------------------------------

	Elements           Molality       Moles

	Ba                1.148e-05   1.148e-05
	S                 1.148e-05   1.148e-05

----------------------------Description of solution----------------------------

                                       pH  =   6.998      Charge balance
                                       pe  =   4.000      Adjusted to redox equilibrium
      Specific Conductance (µS/cm,  25°C)  = 3
                          Density (g/cm³)  =   0.99705
                               Volume (L)  =   1.00297
                        Viscosity (mPa s)  =   0.89012
                        Activity of water  =   1.000
                 Ionic strength (mol/kgw)  =   4.601e-05
                       Mass of water (kg)  =   1.000e+00
                 Total alkalinity (eq/kg)  =  -8.699e-19
                         Temperature (°C)  =  25.00
                  Electrical balance (eq)  =   6.338e-16
 Percent error, 100*(Cat-|An|)/(Cat+|An|)  =   0.00
                               Iterations  =   7
                         Gamma iterations  =   3
                      Osmotic coefficient  =   0.98953
                         Density of water  =   0.99704
                                  Total H  = 1.110124e+02
                                  Total O  = 5.550626e+01

----------------------------Distribution of species----------------------------

                                                    MacInnes  MacInnes
                                MacInnes       Log       Log       Log    mole V
   Species          Molality    Activity  Molality  Activity     Gamma   cm³/mol

   OH-             1.015e-07   1.007e-07    -6.994    -6.997    -0.003     -4.13
   H+              1.014e-07   1.005e-07    -6.994    -6.998    -0.004      0.00
   H2O             5.551e+01   1.000e+00     1.744    -0.000     0.000     18.07
Ba            1.148e-05
   Ba+2            1.148e-05   1.112e-05    -4.940    -4.954    -0.014    -13.71
S(6)          1.148e-05
   SO4-2           1.148e-05   1.112e-05    -4.940    -4.954    -0.014     14.39
   HSO4-           1.096e-10   1.087e-10    -9.960    -9.964    -0.003     40.25

------------------------------Saturation indices-------------------------------

  Phase               SI** log IAP   log K(298 K,   1 atm)

  Barite            0.00     -9.91   -9.91  BaSO4
  H2O(g)           -1.50     -0.00    1.50  H2O

**For a gas, SI = log10(fugacity). Fugacity = pressure * phi / 1 atm.
  For ideal gases, phi = 1.

Reaction step 2.

Using solution 1.	
Using pure phase assemblage 1.	
Using reaction 1.	

Reaction 1.	

	  1.000e-01 moles of the following reaction have been added:

	                 Relative
	Reactant            moles

	MgCl2                1.00000

	                 Relative
	Element             moles
	Cl                   2.00000
	Mg                   1.00000

-------------------------------Phase assemblage--------------------------------

                                                      Moles in assemblage
Phase               SI  log IAP  log K(T, P)   Initial       Final       Delta

Barite            0.00    -9.91     -9.91    1.000e+01   1.000e+01  -4.958e-05

-----------------------------Solution composition------------------------------

	Elements           Molality       Moles

	Ba                6.105e-05   6.105e-05
	Cl                2.000e-01   2.000e-01
	Mg                1.000e-01   1.000e-01
	S                 6.105e-05   6.105e-05

----------------------------Description of solution----------------------------

                                       pH  =   6.624      Charge balance
                                       pe  =   4.000      Adjusted to redox equilibrium
      Specific Conductance (µS/cm,  25°C)  = 18058
                          Density (g/cm³)  =   1.00491
                               Volume (L)  =   1.00460
                        Viscosity (mPa s)  =   0.93565
                        Activity of water  =   0.995
                 Ionic strength (mol/kgw)  =   3.002e-01
                       Mass of water (kg)  =   1.000e+00
                 Total alkalinity (eq/kg)  =   1.205e-17
                         Temperature (°C)  =  25.00
                  Electrical balance (eq)  =   7.694e-13
 Percent error, 100*(Cat-|An|)/(Cat+|An|)  =   0.00
                               Iterations  =  10
                         Gamma iterations  =   3
                      Osmotic coefficient  =   0.86161
                         Density of water  =   0.99704
                                  Total H  = 1.110124e+02
                                  Total O  = 5.550646e+01

----------------------------Distribution of species----------------------------

                                                    MacInnes  MacInnes
                                MacInnes       Log       Log       Log    mole V
   Species          Molality    Activity  Molality  Activity     Gamma   cm³/mol

   H+              3.031e-07   2.374e-07    -6.518    -6.624    -0.106      0.00
   OH-             7.975e-08   4.243e-08    -7.098    -7.372    -0.274     -3.29
   H2O             5.551e+01   9.954e-01     1.744    -0.002     0.000     18.07
Ba            6.105e-05
   Ba+2            6.105e-05   1.669e-05    -4.214    -4.778    -0.563    -11.80
Cl            2.000e-01
   Cl-             2.000e-01   1.373e-01    -0.699    -0.862    -0.163     18.55
Mg            1.000e-01
   Mg+2            1.000e-01   3.101e-02    -1.000    -1.508    -0.508    -20.77
   MgOH+           2.236e-07   2.018e-07    -6.650    -6.695    -0.045     (0)  
S(6)          6.105e-05
   SO4-2           6.105e-05   7.407e-06    -4.214    -5.130    -0.916     17.13
   HSO4-           2.417e-10   1.710e-10    -9.617    -9.767    -0.150     40.74

------------------------------Saturation indices-------------------------------

  Phase               SI** log IAP   log K(298 K,   1 atm)

  Barite            0.00     -9.91   -9.91  BaSO4
  Bischofite       -7.84     -3.25    4.59  MgCl2:6H2O
  Brucite          -5.37    -16.25  -10.88  Mg(OH)2
  Epsomite         -4.81     -6.65   -1.85  MgSO4:7H2O
  H2O(g)           -1.50     -0.00    1.50  H2O
  Hexahydrite      -5.08     -6.65   -1.57  MgSO4:6H2O
  Kieserite        -6.37     -6.64   -0.27  MgSO4:H2O
  Leonhardite      -5.76     -6.65   -0.89  MgSO4:4H2O
  MgCl2_2H2O      -17.79     -3.24   14.56  MgCl2:2H2O
  MgCl2_4H2O      -10.22     -3.24    6.98  MgCl2:4H2O
  Pentahydrite     -5.36     -6.65   -1.28  MgSO4:5H2O

**For a gas, SI = log10(fugacity). Fugacity = pressure * phi / 1 atm.
  For ideal gases, phi = 1.

Reaction step 3.

Using solution 1.	
Using pure phase assemblage 1.	
Using reaction 1.	

Reaction 1.	

	  1.000e-01 moles of the following reaction have been added:

	                 Relative
	Reactant            moles

	MgCl2                1.00000

	                 Relative
	Element             moles
	Cl                   2.00000
	Mg                   1.00000

-------------------------------Phase assemblage--------------------------------

                                                      Moles in assemblage
Phase               SI  log IAP  log K(T, P)   Initial       Final       Delta

Barite            0.00    -9.91     -9.91    1.000e+01   1.000e+01  -2.242e-05

-----------------------------Solution composition------------------------------

	Elements           Molality       Moles

	Ba                8.347e-05   8.347e-05
	Cl                4.000e-01   4.000e-01
	Mg                2.000e-01   2.000e-01
	S                 8.347e-05   8.347e-05

----------------------------Description of solution----------------------------

                                       pH  =   6.514      Charge balance
                                       pe  =   4.000      Adjusted to redox equilibrium
      Specific Conductance (µS/cm,  25°C)  = 33027
                          Density (g/cm³)  =   1.01261
                               Volume (L)  =   1.00637
                        Viscosity (mPa s)  =   0.97736
                        Activity of water  =   0.991
                 Ionic strength (mol/kgw)  =   6.003e-01
                       Mass of water (kg)  =   1.000e+00
                 Total alkalinity (eq/kg)  =   9.272e-16
                         Temperature (°C)  =  25.00
                  Electrical balance (eq)  =   6.878e-10
 Percent error, 100*(Cat-|An|)/(Cat+|An|)  =   0.00
                               Iterations  =   8
                         Gamma iterations  =   3
                      Osmotic coefficient  =   0.87317
                         Density of water  =   0.99704
                                  Total H  = 1.110124e+02
                                  Total O  = 5.550655e+01

----------------------------Distribution of species----------------------------

                                                    MacInnes  MacInnes
                                MacInnes       Log       Log       Log    mole V
   Species          Molality    Activity  Molality  Activity     Gamma   cm³/mol

   H+              3.758e-07   3.064e-07    -6.425    -6.514    -0.089      0.00
   OH-             7.923e-08   3.272e-08    -7.101    -7.485    -0.384     -2.75
   H2O             5.551e+01   9.906e-01     1.744    -0.004     0.000     18.07
Ba            8.347e-05
   Ba+2            8.347e-05   1.987e-05    -4.078    -4.702    -0.623    -11.17
Cl            4.000e-01
   Cl-             4.000e-01   2.547e-01    -0.398    -0.594    -0.196     18.75
Mg            2.000e-01
   Mg+2            2.000e-01   5.646e-02    -0.699    -1.248    -0.549    -20.47
   MgOH+           2.969e-07   2.834e-07    -6.527    -6.548    -0.020     (0)  
S(6)          8.347e-05
   SO4-2           8.347e-05   6.223e-06    -4.078    -5.206    -1.128     18.24
   HSO4-           2.752e-10   1.854e-10    -9.560    -9.732    -0.172     40.93

------------------------------Saturation indices-------------------------------

  Phase               SI** log IAP   log K(298 K,   1 atm)

  Barite            0.00     -9.91   -9.91  BaSO4
  Bischofite       -7.05     -2.46    4.59  MgCl2:6H2O
  Brucite          -5.34    -16.22  -10.88  Mg(OH)2
  Epsomite         -4.64     -6.48   -1.85  MgSO4:7H2O
  H2O(g)           -1.51     -0.00    1.50  H2O
  Hexahydrite      -4.91     -6.48   -1.57  MgSO4:6H2O
  Kieserite        -6.19     -6.46   -0.27  MgSO4:H2O
  Leonhardite      -5.58     -6.47   -0.89  MgSO4:4H2O
  MgCl2_2H2O      -17.00     -2.44   14.56  MgCl2:2H2O
  MgCl2_4H2O       -9.43     -2.45    6.98  MgCl2:4H2O
  Pentahydrite     -5.19     -6.47   -1.28  MgSO4:5H2O

**For a gas, SI = log10(fugacity). Fugacity = pressure * phi / 1 atm.
  For ideal gases, phi = 1.

Reaction step 4.

Using solution 1.	
Using pure phase assemblage 1.	
Using reaction 1.	

Reaction 1.	

	  1.000e-01 moles of the following reaction have been added:

	                 Relative
	Reactant            moles

	MgCl2                1.00000

	                 Relative
	Element             moles
	Cl                   2.00000
	Mg                   1.00000

-------------------------------Phase assemblage--------------------------------

                                                      Moles in assemblage
Phase               SI  log IAP  log K(T, P)   Initial       Final       Delta

Barite            0.00    -9.91     -9.91    1.000e+01   1.000e+01  -1.555e-05

-----------------------------Solution composition------------------------------

	Elements           Molality       Moles

	Ba                9.902e-05   9.902e-05
	Cl                6.000e-01   6.000e-01
	Mg                3.000e-01   3.000e-01
	S                 9.902e-05   9.902e-05

----------------------------Description of solution----------------------------

                                       pH  =   6.428      Charge balance
                                       pe  =   4.000      Adjusted to redox equilibrium
      Specific Conductance (µS/cm,  25°C)  = 46478
                          Density (g/cm³)  =   1.02019
                               Volume (L)  =   1.00823
                        Viscosity (mPa s)  =   1.01852
                        Activity of water  =   0.986
                 Ionic strength (mol/kgw)  =   9.004e-01
                       Mass of water (kg)  =   1.000e+00
                 Total alkalinity (eq/kg)  =   1.688e-15
                         Temperature (°C)  =  25.00
                  Electrical balance (eq)  =   9.255e-10
 Percent error, 100*(Cat-|An|)/(Cat+|An|)  =   0.00
                               Iterations  =   7
                         Gamma iterations  =   3
                      Osmotic coefficient  =   0.89308
                         Density of water  =   0.99704
                                  Total H  = 1.110124e+02
                                  Total O  = 5.550661e+01

----------------------------Distribution of species----------------------------

                                                    MacInnes  MacInnes
                                MacInnes       Log       Log       Log    mole V
   Species          Molality    Activity  Molality  Activity     Gamma   cm³/mol

   H+              4.293e-07   3.734e-07    -6.367    -6.428    -0.061      0.00
   OH-             7.834e-08   2.671e-08    -7.106    -7.573    -0.467     -2.26
   H2O             5.551e+01   9.856e-01     1.744    -0.006     0.000     18.07
Ba            9.902e-05
   Ba+2            9.902e-05   2.312e-05    -4.004    -4.636    -0.632    -10.72
Cl            6.000e-01
   Cl-             6.000e-01   3.663e-01    -0.222    -0.436    -0.214     18.90
Mg            3.000e-01
   Mg+2            3.000e-01   8.473e-02    -0.523    -1.072    -0.549    -20.25
   MgOH+           3.512e-07   3.471e-07    -6.454    -6.459    -0.005     (0)  
S(6)          9.902e-05
   SO4-2           9.902e-05   5.347e-06    -4.004    -5.272    -1.268     19.09
   HSO4-           2.933e-10   1.941e-10    -9.533    -9.712    -0.179     41.06

------------------------------Saturation indices-------------------------------

  Phase               SI** log IAP   log K(298 K,   1 atm)

  Barite            0.00     -9.91   -9.91  BaSO4
  Bischofite       -6.57     -1.98    4.59  MgCl2:6H2O
  Brucite          -5.34    -16.22  -10.88  Mg(OH)2
  Epsomite         -4.54     -6.39   -1.85  MgSO4:7H2O
  H2O(g)           -1.51     -0.01    1.50  H2O
  Hexahydrite      -4.81     -6.38   -1.57  MgSO4:6H2O
  Kieserite        -6.08     -6.35   -0.27  MgSO4:H2O
  Leonhardite      -5.48     -6.37   -0.89  MgSO4:4H2O
  MgCl2_2H2O      -16.51     -1.96   14.56  MgCl2:2H2O
  MgCl2_4H2O       -8.95     -1.97    6.98  MgCl2:4H2O
  Pentahydrite     -5.09     -6.38   -1.28  MgSO4:5H2O

**For a gas, SI = log10(fugacity). Fugacity = pressure * phi / 1 atm.
  For ideal gases, phi = 1.

Reaction step 5.

Using solution 1.	
Using pure phase assemblage 1.	
Using reaction 1.	

Reaction 1.	

	  1.000e-01 moles of the following reaction have been added:

	                 Relative
	Reactant            moles

	MgCl2                1.00000

	                 Relative
	Element             moles
	Cl                   2.00000
	Mg                   1.00000

-------------------------------Phase assemblage--------------------------------

                                                      Moles in assemblage
Phase               SI  log IAP  log K(T, P)   Initial       Final       Delta

Barite            0.00    -9.91     -9.91    1.000e+01   1.000e+01  -1.128e-05

-----------------------------Solution composition------------------------------

	Elements           Molality       Moles

	Ba                1.103e-04   1.103e-04
	Cl                8.000e-01   8.000e-01
	Mg                4.000e-01   4.000e-01
	S                 1.103e-04   1.103e-04

----------------------------Description of solution----------------------------

                                       pH  =   6.351      Charge balance
                                       pe  =   4.000      Adjusted to redox equilibrium
      Specific Conductance (µS/cm,  25°C)  = 58772
                          Density (g/cm³)  =   1.02766
                               Volume (L)  =   1.01017
                        Viscosity (mPa s)  =   1.05952
                        Activity of water  =   0.980
                 Ionic strength (mol/kgw)  =   1.200e+00
                       Mass of water (kg)  =   1.000e+00
                 Total alkalinity (eq/kg)  =   2.605e-15
                         Temperature (°C)  =  25.00
                  Electrical balance (eq)  =   1.025e-09
 Percent error, 100*(Cat-|An|)/(Cat+|An|)  =   0.00
                               Iterations  =   7
                         Gamma iterations  =   3
                      Osmotic coefficient  =   0.91697
                         Density of water  =   0.99704
                                  Total H  = 1.110124e+02
                                  Total O  = 5.550666e+01

----------------------------Distribution of species----------------------------

                                                    MacInnes  MacInnes
                                MacInnes       Log       Log       Log    mole V
   Species          Molality    Activity  Molality  Activity     Gamma   cm³/mol

   H+              4.751e-07   4.459e-07    -6.323    -6.351    -0.028      0.00
   OH-             7.662e-08   2.225e-08    -7.116    -7.653    -0.537     -1.80
   H2O             5.551e+01   9.804e-01     1.744    -0.009     0.000     18.07
Ba            1.103e-04
   Ba+2            1.103e-04   2.663e-05    -3.957    -4.575    -0.617    -10.34
Cl            8.000e-01
   Cl-             8.000e-01   4.755e-01    -0.097    -0.323    -0.226     19.03
Mg            4.000e-01
   Mg+2            4.000e-01   1.179e-01    -0.398    -0.928    -0.531    -20.06
   MgOH+           3.988e-07   4.024e-07    -6.399    -6.395     0.004     (0)  
S(6)          1.103e-04
   SO4-2           1.103e-04   4.642e-06    -3.957    -5.333    -1.376     19.81
   HSO4-           3.050e-10   2.012e-10    -9.516    -9.696    -0.181     41.18

------------------------------Saturation indices-------------------------------

  Phase               SI** log IAP   log K(298 K,   1 atm)

  Barite            0.00     -9.91   -9.91  BaSO4
  Bischofite       -6.22     -1.63    4.59  MgCl2:6H2O
  Brucite          -5.35    -16.23  -10.88  Mg(OH)2
  Epsomite         -4.47     -6.32   -1.85  MgSO4:7H2O
  H2O(g)           -1.51     -0.01    1.50  H2O
  Hexahydrite      -4.75     -6.31   -1.57  MgSO4:6H2O
  Kieserite        -6.00     -6.27   -0.27  MgSO4:H2O
  Leonhardite      -5.41     -6.30   -0.89  MgSO4:4H2O
  MgCl2_2H2O      -16.15     -1.59   14.56  MgCl2:2H2O
  MgCl2_4H2O       -8.59     -1.61    6.98  MgCl2:4H2O
  Pentahydrite     -5.02     -6.30   -1.28  MgSO4:5H2O

**For a gas, SI = log10(fugacity). Fugacity = pressure * phi / 1 atm.
  For ideal gases, phi = 1.

Reaction step 6.

Using solution 1.	
Using pure phase assemblage 1.	
Using reaction 1.	

Reaction 1.	

	  1.000e-01 moles of the following reaction have been added:

	                 Relative
	Reactant            moles

	MgCl2                1.00000

	                 Relative
	Element             moles
	Cl                   2.00000
	Mg                   1.00000

-------------------------------Phase assemblage--------------------------------

                                                      Moles in assemblage
Phase               SI  log IAP  log K(T, P)   Initial       Final       Delta

Barite            0.00    -9.91     -9.91    1.000e+01   1.000e+01  -8.232e-06

-----------------------------Solution composition------------------------------

	Elements           Molality       Moles

	Ba                1.185e-04   1.185e-04
	Cl                1.000e+00   1.000e+00
	Mg                5.000e-01   5.000e-01
	S                 1.185e-04   1.185e-04

----------------------------Description of solution----------------------------

                                       pH  =   6.278      Charge balance
                                       pe  =   4.000      Adjusted to redox equilibrium
      Specific Conductance (µS/cm,  25°C)  = 70097
                          Density (g/cm³)  =   1.03505
                               Volume (L)  =   1.01216
                        Viscosity (mPa s)  =   1.10061
                        Activity of water  =   0.975
                 Ionic strength (mol/kgw)  =   1.500e+00
                       Mass of water (kg)  =   1.000e+00
                 Total alkalinity (eq/kg)  =   3.618e-15
                         Temperature (°C)  =  25.00
                  Electrical balance (eq)  =   1.080e-09
 Percent error, 100*(Cat-|An|)/(Cat+|An|)  =   0.00
                               Iterations  =   7
                         Gamma iterations  =   3
                      Osmotic coefficient  =   0.94375
                         Density of water  =   0.99704
                                  Total H  = 1.110124e+02
                                  Total O  = 5.550669e+01

----------------------------Distribution of species----------------------------

                                                    MacInnes  MacInnes
                                MacInnes       Log       Log       Log    mole V
   Species          Molality    Activity  Molality  Activity     Gamma   cm³/mol

   H+              5.174e-07   5.275e-07    -6.286    -6.278     0.008      0.00
   OH-             7.418e-08   1.870e-08    -7.130    -7.728    -0.598     -1.35
   H2O             5.551e+01   9.748e-01     1.744    -0.011     0.000     18.07
Ba            1.185e-04
   Ba+2            1.185e-04   3.050e-05    -3.926    -4.516    -0.590    -10.01
Cl            1.000e+00
   Cl-             1.000e+00   5.838e-01     0.000    -0.234    -0.234     19.14
Mg            5.000e-01
   Mg+2            5.000e-01   1.579e-01    -0.301    -0.802    -0.501    -19.88
   MgOH+           4.436e-07   4.530e-07    -6.353    -6.344     0.009     (0)  
S(6)          1.185e-04
   SO4-2           1.185e-04   4.053e-06    -3.926    -5.392    -1.466     20.43
   HSO4-           3.134e-10   2.079e-10    -9.504    -9.682    -0.178     41.27

------------------------------Saturation indices-------------------------------

  Phase               SI** log IAP   log K(298 K,   1 atm)

  Barite            0.00     -9.91   -9.91  BaSO4
  Bischofite       -5.93     -1.34    4.59  MgCl2:6H2O
  Brucite          -5.38    -16.26  -10.88  Mg(OH)2
  Epsomite         -4.42     -6.27   -1.85  MgSO4:7H2O
  H2O(g)           -1.51     -0.01    1.50  H2O
  Hexahydrite      -4.69     -6.26   -1.57  MgSO4:6H2O
  Kieserite        -5.94     -6.20   -0.27  MgSO4:H2O
  Leonhardite      -5.35     -6.24   -0.89  MgSO4:4H2O
  MgCl2_2H2O      -15.85     -1.29   14.56  MgCl2:2H2O
  MgCl2_4H2O       -8.29     -1.31    6.98  MgCl2:4H2O
  Pentahydrite     -4.96     -6.25   -1.28  MgSO4:5H2O

**For a gas, SI = log10(fugacity). Fugacity = pressure * phi / 1 atm.
  For ideal gases, phi = 1.

Reaction step 7.

Using solution 1.	
Using pure phase assemblage 1.	
Using reaction 1.	

Reaction 1.	

	  5.000e-01 moles of the following reaction have been added:

	                 Relative
	Reactant            moles

	MgCl2                1.00000

	                 Relative
	Element             moles
	Cl                   2.00000
	Mg                   1.00000

-------------------------------Phase assemblage--------------------------------

                                                      Moles in assemblage
Phase               SI  log IAP  log K(T, P)   Initial       Final       Delta

Barite            0.00    -9.91     -9.91    1.000e+01   1.000e+01  -1.587e-05

-----------------------------Solution composition------------------------------

	Elements           Molality       Moles

	Ba                1.344e-04   1.344e-04
	Cl                2.000e+00   2.000e+00
	Mg                1.000e+00   1.000e+00
	S                 1.344e-04   1.344e-04

----------------------------Description of solution----------------------------

                                       pH  =   5.928      Charge balance
                                       pe  =   4.000      Adjusted to redox equilibrium
      Specific Conductance (µS/cm,  25°C)  = 115271
                          Density (g/cm³)  =   1.07068
                               Volume (L)  =   1.02294
                        Viscosity (mPa s)  =   1.31410
                        Activity of water  =   0.942
                 Ionic strength (mol/kgw)  =   3.001e+00
                       Mass of water (kg)  =   1.000e+00
                 Total alkalinity (eq/kg)  =   3.981e-15
                         Temperature (°C)  =  25.00
                  Electrical balance (eq)  =   1.081e-09
 Percent error, 100*(Cat-|An|)/(Cat+|An|)  =   0.00
                               Iterations  =  10
                         Gamma iterations  =   4
                      Osmotic coefficient  =   1.10863
                         Density of water  =   0.99704
                                  Total H  = 1.110124e+02
                                  Total O  = 5.550675e+01

----------------------------Distribution of species----------------------------

                                                    MacInnes  MacInnes
                                MacInnes       Log       Log       Log    mole V
   Species          Molality    Activity  Molality  Activity     Gamma   cm³/mol

   H+              7.212e-07   1.181e-06    -6.142    -5.928     0.214      0.00
   OH-             5.657e-08   8.074e-09    -7.247    -8.093    -0.845      0.77
   H2O             5.551e+01   9.418e-01     1.744    -0.026     0.000     18.07
Ba            1.344e-04
   Ba+2            1.344e-04   5.719e-05    -3.872    -4.243    -0.371     -8.74
Cl            2.000e+00
   Cl-             2.000e+00   1.140e+00     0.301     0.057    -0.244     19.55
Mg            1.000e+00
   Mg+2            1.000e+00   5.586e-01    -0.000    -0.253    -0.253    -19.12
   MgOH+           6.649e-07   6.918e-07    -6.177    -6.160     0.017     (0)  
S(6)          1.344e-04
   SO4-2           1.344e-04   2.161e-06    -3.872    -5.665    -1.794     22.88
   HSO4-           3.437e-10   2.481e-10    -9.464    -9.605    -0.142     41.62

------------------------------Saturation indices-------------------------------

  Phase               SI** log IAP   log K(298 K,   1 atm)

  Barite            0.00     -9.91   -9.91  BaSO4
  Bischofite       -4.89     -0.30    4.59  MgCl2:6H2O
  Brucite          -5.56    -16.44  -10.88  Mg(OH)2
  Epsomite         -4.25     -6.10   -1.85  MgSO4:7H2O
  H2O(g)           -1.53     -0.03    1.50  H2O
  Hexahydrite      -4.51     -6.07   -1.57  MgSO4:6H2O
  Kieserite        -5.68     -5.94   -0.27  MgSO4:H2O
  Leonhardite      -5.14     -6.02   -0.89  MgSO4:4H2O
  MgCl2_2H2O      -14.75     -0.19   14.56  MgCl2:2H2O
  MgCl2_4H2O       -7.22     -0.24    6.98  MgCl2:4H2O
  Pentahydrite     -4.76     -6.05   -1.28  MgSO4:5H2O

**For a gas, SI = log10(fugacity). Fugacity = pressure * phi / 1 atm.
  For ideal gases, phi = 1.

Reaction step 8.

Using solution 1.	
Using pure phase assemblage 1.	
Using reaction 1.	

Reaction 1.	

	  5.000e-01 moles of the following reaction have been added:

	                 Relative
	Reactant            moles

	MgCl2                1.00000

	                 Relative
	Element             moles
	Cl                   2.00000
	Mg                   1.00000

-------------------------------Phase assemblage--------------------------------

                                                      Moles in assemblage
Phase               SI  log IAP  log K(T, P)   Initial       Final       Delta

Barite            0.00    -9.91     -9.91    1.000e+01   1.000e+01   7.533e-07

-----------------------------Solution composition------------------------------

	Elements           Molality       Moles

	Ba                1.336e-04   1.336e-04
	Cl                3.000e+00   3.000e+00
	Mg                1.500e+00   1.500e+00
	S                 1.336e-04   1.336e-04

----------------------------Description of solution----------------------------

                                       pH  =   5.577      Charge balance
                                       pe  =   4.000      Adjusted to redox equilibrium
      Specific Conductance (µS/cm,  25°C)  = 145019
                          Density (g/cm³)  =   1.10434
                               Volume (L)  =   1.03487
                        Viscosity (mPa s)  =   1.56100
                        Activity of water  =   0.899
                 Ionic strength (mol/kgw)  =   4.501e+00
                       Mass of water (kg)  =   1.000e+00
                 Total alkalinity (eq/kg)  =   4.108e-15
                         Temperature (°C)  =  25.00
                  Electrical balance (eq)  =   1.083e-09
 Percent error, 100*(Cat-|An|)/(Cat+|An|)  =   0.00
                               Iterations  =   9
                         Gamma iterations  =   4
                      Osmotic coefficient  =   1.30861
                         Density of water  =   0.99704
                                  Total H  = 1.110124e+02
                                  Total O  = 5.550675e+01

----------------------------Distribution of species----------------------------

                                                    MacInnes  MacInnes
                                MacInnes       Log       Log       Log    mole V
   Species          Molality    Activity  Molality  Activity     Gamma   cm³/mol

   H+              9.492e-07   2.646e-06    -6.023    -5.577     0.445      0.00
   OH-             3.866e-08   3.440e-09    -7.413    -8.463    -1.051      2.77
   H2O             5.551e+01   8.993e-01     1.744    -0.046     0.000     18.07
Ba            1.336e-04
   Ba+2            1.336e-04   1.009e-04    -3.874    -3.996    -0.122     -7.77
Cl            3.000e+00
   Cl-             3.000e+00   1.754e+00     0.477     0.244    -0.233     19.85
Mg            1.500e+00
   Mg+2            1.500e+00   1.850e+00     0.176     0.267     0.091    -18.43
   MgOH+           9.109e-07   9.760e-07    -6.041    -6.011     0.030     (0)  
S(6)          1.336e-04
   SO4-2           1.336e-04   1.225e-06    -3.874    -5.912    -2.038     24.75
   HSO4-           3.844e-10   3.151e-10    -9.415    -9.501    -0.086     41.86

------------------------------Saturation indices-------------------------------

  Phase               SI** log IAP   log K(298 K,   1 atm)

  Barite            0.00     -9.91   -9.91  BaSO4
  Bischofite       -4.11      0.48    4.59  MgCl2:6H2O
  Brucite          -5.78    -16.66  -10.88  Mg(OH)2
  Epsomite         -4.12     -5.97   -1.85  MgSO4:7H2O
  H2O(g)           -1.55     -0.05    1.50  H2O
  Hexahydrite      -4.35     -5.92   -1.57  MgSO4:6H2O
  Kieserite        -5.42     -5.69   -0.27  MgSO4:H2O
  Leonhardite      -4.94     -5.83   -0.89  MgSO4:4H2O
  MgCl2_2H2O      -13.89      0.66   14.56  MgCl2:2H2O
  MgCl2_4H2O       -6.41      0.57    6.98  MgCl2:4H2O
  Pentahydrite     -4.59     -5.88   -1.28  MgSO4:5H2O

**For a gas, SI = log10(fugacity). Fugacity = pressure * phi / 1 atm.
  For ideal gases, phi = 1.

Reaction step 9.

Using solution 1.	
Using pure phase assemblage 1.	
Using reaction 1.	

Reaction 1.	

	  5.000e-01 moles of the following reaction have been added:

	                 Relative
	Reactant            moles

	MgCl2                1.00000

	                 Relative
	Element             moles
	Cl                   2.00000
	Mg                   1.00000

-------------------------------Phase assemblage--------------------------------

                                                      Moles in assemblage
Phase               SI  log IAP  log K(T, P)   Initial       Final       Delta

Barite            0.00    -9.91     -9.91    1.000e+01   1.000e+01   2.207e-06

-----------------------------Solution composition------------------------------

	Elements           Molality       Moles

	Ba                1.314e-04   1.314e-04
	Cl                4.000e+00   4.000e+00
	Mg                2.000e+00   2.000e+00
	S                 1.314e-04   1.314e-04

----------------------------Description of solution----------------------------

                                       pH  =   5.223      Charge balance
                                       pe  =   4.000      Adjusted to redox equilibrium
      Specific Conductance (µS/cm,  25°C)  = 161428
                          Density (g/cm³)  =   1.13614
                               Volume (L)  =   1.04780
                        Viscosity (mPa s)  =   1.87482
                        Activity of water  =   0.847
                 Ionic strength (mol/kgw)  =   6.001e+00
                       Mass of water (kg)  =   1.000e+00
                 Total alkalinity (eq/kg)  =   3.421e-15
                         Temperature (°C)  =  25.00
                  Electrical balance (eq)  =   1.087e-09
 Percent error, 100*(Cat-|An|)/(Cat+|An|)  =   0.00
                               Iterations  =   9
                         Gamma iterations  =   4
                      Osmotic coefficient  =   1.53106
                         Density of water  =   0.99704
                                  Total H  = 1.110124e+02
                                  Total O  = 5.550674e+01

----------------------------Distribution of species----------------------------

                                                    MacInnes  MacInnes
                                MacInnes       Log       Log       Log    mole V
   Species          Molality    Activity  Molality  Activity     Gamma   cm³/mol

   H+              1.218e-06   5.988e-06    -5.914    -5.223     0.692      0.00
   OH-             2.493e-08   1.433e-09    -7.603    -8.844    -1.241      4.71
   H2O             5.551e+01   8.475e-01     1.744    -0.072     0.000     18.07
Ba            1.314e-04
   Ba+2            1.314e-04   1.672e-04    -3.881    -3.777     0.105     -6.94
Cl            4.000e+00
   Cl-             4.000e+00   2.450e+00     0.602     0.389    -0.213     20.09
Mg            2.000e+00
   Mg+2            2.000e+00   6.253e+00     0.301     0.796     0.495    -17.77
   MgOH+           1.193e-06   1.374e-06    -5.923    -5.862     0.061     (0)  
S(6)          1.314e-04
   SO4-2           1.314e-04   7.393e-07    -3.881    -6.131    -2.250     26.32
   HSO4-           4.549e-10   4.304e-10    -9.342    -9.366    -0.024     42.04

------------------------------Saturation indices-------------------------------

  Phase               SI** log IAP   log K(298 K,   1 atm)

  Barite            0.00     -9.91   -9.91  BaSO4
  Bischofite       -3.45      1.14    4.59  MgCl2:6H2O
  Brucite          -6.01    -16.89  -10.88  Mg(OH)2
  Epsomite         -3.99     -5.84   -1.85  MgSO4:7H2O
  H2O(g)           -1.57     -0.07    1.50  H2O
  Hexahydrite      -4.20     -5.77   -1.57  MgSO4:6H2O
  Kieserite        -5.14     -5.41   -0.27  MgSO4:H2O
  Leonhardite      -4.74     -5.62   -0.89  MgSO4:4H2O
  MgCl2_2H2O      -13.13      1.43   14.56  MgCl2:2H2O
  MgCl2_4H2O       -5.69      1.29    6.98  MgCl2:4H2O
  Pentahydrite     -4.41     -5.69   -1.28  MgSO4:5H2O

**For a gas, SI = log10(fugacity). Fugacity = pressure * phi / 1 atm.
  For ideal gases, phi = 1.

Reaction step 10.

Using solution 1.	
Using pure phase assemblage 1.	
Using reaction 1.	

Reaction 1.	

	  5.000e-01 moles of the following reaction have been added:

	                 Relative
	Reactant            moles

	MgCl2                1.00000

	                 Relative
	Element             moles
	Cl                   2.00000
	Mg                   1.00000

-------------------------------Phase assemblage--------------------------------

                                                      Moles in assemblage
Phase               SI  log IAP  log K(T, P)   Initial       Final       Delta

Barite            0.00    -9.91     -9.91    1.000e+01   1.000e+01  -2.050e-06

-----------------------------Solution composition------------------------------

	Elements           Molality       Moles

	Ba                1.335e-04   1.335e-04
	Cl                5.000e+00   5.000e+00
	Mg                2.500e+00   2.500e+00
	S                 1.335e-04   1.335e-04

----------------------------Description of solution----------------------------

                                       pH  =   4.866      Charge balance
                                       pe  =   4.000      Adjusted to redox equilibrium
      Specific Conductance (µS/cm,  25°C)  = 166031
                          Density (g/cm³)  =   1.16614
                               Volume (L)  =   1.06167
                        Viscosity (mPa s)  =   2.29696
                        Activity of water  =   0.787
                 Ionic strength (mol/kgw)  =   7.501e+00
                       Mass of water (kg)  =   1.000e+00
                 Total alkalinity (eq/kg)  =   3.508e-15
                         Temperature (°C)  =  25.00
                  Electrical balance (eq)  =   1.097e-09
 Percent error, 100*(Cat-|An|)/(Cat+|An|)  =   0.00
                               Iterations  =   9
                         Gamma iterations  =   4
                      Osmotic coefficient  =   1.76946
                         Density of water  =   0.99704
                                  Total H  = 1.110124e+02
                                  Total O  = 5.550675e+01

----------------------------Distribution of species----------------------------

                                                    MacInnes  MacInnes
                                MacInnes       Log       Log       Log    mole V
   Species          Molality    Activity  Molality  Activity     Gamma   cm³/mol

   H+              1.531e-06   1.361e-05    -5.815    -4.866     0.949      0.00
   OH-             1.557e-08   5.855e-10    -7.808    -9.232    -1.425      6.62
   H2O             5.551e+01   7.873e-01     1.744    -0.104     0.000     18.07
Ba            1.335e-04
   Ba+2            1.335e-04   2.588e-04    -3.875    -3.587     0.287     -6.20
Cl            5.000e+00
   Cl-             5.000e+00   3.244e+00     0.699     0.511    -0.188     20.30
Mg            2.500e+00
   Mg+2            2.500e+00   2.193e+01     0.398     1.341     0.943    -17.12
   MgOH+           1.516e-06   1.970e-06    -5.819    -5.706     0.114     (0)  
S(6)          1.335e-04
   SO4-2           1.335e-04   4.777e-07    -3.875    -6.321    -2.446     27.70
   HSO4-           5.759e-10   6.322e-10    -9.240    -9.199     0.041     42.19

------------------------------Saturation indices-------------------------------

  Phase               SI** log IAP   log K(298 K,   1 atm)

  Barite            0.00     -9.91   -9.91  BaSO4
  Bischofite       -2.85      1.74    4.59  MgCl2:6H2O
  Brucite          -6.24    -17.12  -10.88  Mg(OH)2
  Epsomite         -3.86     -5.71   -1.85  MgSO4:7H2O
  H2O(g)           -1.61     -0.10    1.50  H2O
  Hexahydrite      -4.03     -5.60   -1.57  MgSO4:6H2O
  Kieserite        -4.82     -5.08   -0.27  MgSO4:H2O
  Leonhardite      -4.51     -5.40   -0.89  MgSO4:4H2O
  MgCl2_2H2O      -12.40      2.16   14.56  MgCl2:2H2O
  MgCl2_4H2O       -5.03      1.95    6.98  MgCl2:4H2O
  Pentahydrite     -4.21     -5.50   -1.28  MgSO4:5H2O

**For a gas, SI = log10(fugacity). Fugacity = pressure * phi / 1 atm.
  For ideal gases, phi = 1.

------------------
End of simulation.
------------------

------------------------------------
Reading input data for simulation 3.
------------------------------------

