WARNING: Database file from DATABASE keyword is used; command line argument ignored.
   Input file: calc_density
  Output file: calc_density.out
Database file: ../database/phreeqc.dat

------------------
Reading data base.
------------------

	SOLUTION_MASTER_SPECIES
	SOLUTION_SPECIES
	PHASES
	GAS_BINARY_PARAMETERS
	EXCHANGE_MASTER_SPECIES
	EXCHANGE_SPECIES
	SURFACE_MASTER_SPECIES
	SURFACE_SPECIES
	MEAN_GAMMAS
	RATES
	END
------------------------------------
Reading input data for simulation 1.
------------------------------------

	DATABASE ../database/phreeqc.dat
	SELECTED_OUTPUT 101
	    file                 calc_density_101.sel
	USER_PUNCH 101
	    headings Mu SC
	    start
	10 PUNCH STR_F$(MU, 20, 12)
	20 PUNCH STR_F$(SC, 20, 10)
	    end
	SOLUTION_SPREAD
	units mmol/L
	density 1.1 calculate
	Na	Cl	pH	density	
			charge		
	1000	1000	7		
	END
-------------------------------------------
Beginning of initial solution calculations.
-------------------------------------------

Initial solution 1.	

-----------------------------Solution composition------------------------------

	Elements           Molality       Moles

	Cl                1.022e+00   1.022e+00
	Na                1.022e+00   1.022e+00

----------------------------Description of solution----------------------------

                                       pH  =   6.963      Charge balance
                                       pe  =   4.000    
      Specific Conductance (µS/cm,  25°C)  = 85867
                          Density (g/cm³)  =   1.03688 (Iterated) 
                               Volume (L)  =   1.02204
                        Viscosity (mPa s)  =   0.97524
                        Activity of water  =   0.965
                 Ionic strength (mol/kgw)  =   1.022e+00
                       Mass of water (kg)  =   1.000e+00
                 Total alkalinity (eq/kg)  =  -1.867e-17
                         Temperature (°C)  =  25.00
                  Electrical balance (eq)  =   1.169e-15
 Percent error, 100*(Cat-|An|)/(Cat+|An|)  =   0.00
                               Iterations  =   4 (24 overall)
                                  Total H  = 1.110124e+02
                                  Total O  = 5.550622e+01

----------------------------Distribution of species----------------------------

                                               Log       Log       Log    mole V
   Species          Molality    Activity  Molality  Activity     Gamma   cm³/mol

   OH-             1.553e-07   8.967e-08    -6.809    -7.047    -0.238     -2.07
   H+              1.467e-07   1.089e-07    -6.834    -6.963    -0.129      0.00
   H2O             5.551e+01   9.653e-01     1.744    -0.015     0.000     18.07
Cl            1.022e+00
   Cl-             1.022e+00   6.209e-01     0.009    -0.207    -0.216     18.95
   HCl             8.560e-09   2.331e-08    -8.068    -7.633     0.435     20.36
H(0)          1.313e-25
   H2              6.564e-26   8.403e-26   -25.183   -25.076     0.107     14.99
Na            1.022e+00
   Na+             1.022e+00   7.487e-01     0.009    -0.126    -0.135     -0.29
O(0)          0.000e+00
   O2              0.000e+00   0.000e+00   -42.344   -42.242     0.102     30.40

------------------------------Saturation indices-------------------------------

  Phase               SI** log IAP   log K(298 K,   1 atm)

  H2(g)           -21.98    -25.08   -3.10  H2
  H2O(g)           -1.52     -0.02    1.50  H2O
  Halite           -1.90     -0.33    1.57  NaCl
  O2(g)           -39.35    -42.24   -2.89  O2

**For a gas, SI = log10(fugacity). Fugacity = pressure * phi / 1 atm.
  For ideal gases, phi = 1.

------------------
End of simulation.
------------------

------------------------------------
Reading input data for simulation 2.
------------------------------------

	SOLUTION_SPREAD
	units mmol/L
	density 1.1 calculate
	Na	Cl	pH	density	
			charge		
	1000	1000	7	1.5		
	END
-------------------------------------------
Beginning of initial solution calculations.
-------------------------------------------

Initial solution 2.	

-----------------------------Solution composition------------------------------

	Elements           Molality       Moles

	Cl                1.022e+00   1.022e+00
	Na                1.022e+00   1.022e+00

----------------------------Description of solution----------------------------

                                       pH  =   6.963      Charge balance
                                       pe  =   4.000    
      Specific Conductance (µS/cm,  25°C)  = 85867
                          Density (g/cm³)  =   1.03688 (Iterated) 
                               Volume (L)  =   1.02204
                        Viscosity (mPa s)  =   0.97524
                        Activity of water  =   0.965
                 Ionic strength (mol/kgw)  =   1.022e+00
                       Mass of water (kg)  =   1.000e+00
                 Total alkalinity (eq/kg)  =  -1.217e-17
                         Temperature (°C)  =  25.00
                  Electrical balance (eq)  =   9.505e-16
 Percent error, 100*(Cat-|An|)/(Cat+|An|)  =   0.00
                               Iterations  =   4 (24 overall)
                                  Total H  = 1.110124e+02
                                  Total O  = 5.550622e+01

----------------------------Distribution of species----------------------------

                                               Log       Log       Log    mole V
   Species          Molality    Activity  Molality  Activity     Gamma   cm³/mol

   OH-             1.553e-07   8.967e-08    -6.809    -7.047    -0.238     -2.07
   H+              1.467e-07   1.089e-07    -6.834    -6.963    -0.129      0.00
   H2O             5.551e+01   9.653e-01     1.744    -0.015     0.000     18.07
Cl            1.022e+00
   Cl-             1.022e+00   6.209e-01     0.009    -0.207    -0.216     18.95
   HCl             8.560e-09   2.331e-08    -8.068    -7.633     0.435     20.36
H(0)          1.313e-25
   H2              6.564e-26   8.403e-26   -25.183   -25.076     0.107     14.99
Na            1.022e+00
   Na+             1.022e+00   7.487e-01     0.009    -0.126    -0.135     -0.29
O(0)          0.000e+00
   O2              0.000e+00   0.000e+00   -42.344   -42.242     0.102     30.40

------------------------------Saturation indices-------------------------------

  Phase               SI** log IAP   log K(298 K,   1 atm)

  H2(g)           -21.98    -25.08   -3.10  H2
  H2O(g)           -1.52     -0.02    1.50  H2O
  Halite           -1.90     -0.33    1.57  NaCl
  O2(g)           -39.35    -42.24   -2.89  O2

**For a gas, SI = log10(fugacity). Fugacity = pressure * phi / 1 atm.
  For ideal gases, phi = 1.

------------------
End of simulation.
------------------

------------------------------------
Reading input data for simulation 3.
------------------------------------

	SOLUTION_SPREAD
	units mmol/L
	Na	Cl	pH	density	
			charge	calculate	
	1000	1000	7	1.2	
	END
-------------------------------------------
Beginning of initial solution calculations.
-------------------------------------------

Initial solution 3.	

-----------------------------Solution composition------------------------------

	Elements           Molality       Moles

	Cl                1.022e+00   1.022e+00
	Na                1.022e+00   1.022e+00

----------------------------Description of solution----------------------------

                                       pH  =   6.963      Charge balance
                                       pe  =   4.000    
      Specific Conductance (µS/cm,  25°C)  = 85867
                          Density (g/cm³)  =   1.03688 (Iterated) 
                               Volume (L)  =   1.02204
                        Viscosity (mPa s)  =   0.97524
                        Activity of water  =   0.965
                 Ionic strength (mol/kgw)  =   1.022e+00
                       Mass of water (kg)  =   1.000e+00
                 Total alkalinity (eq/kg)  =  -1.966e-17
                         Temperature (°C)  =  25.00
                  Electrical balance (eq)  =   7.274e-16
 Percent error, 100*(Cat-|An|)/(Cat+|An|)  =   0.00
                               Iterations  =   4 (24 overall)
                                  Total H  = 1.110124e+02
                                  Total O  = 5.550622e+01

----------------------------Distribution of species----------------------------

                                               Log       Log       Log    mole V
   Species          Molality    Activity  Molality  Activity     Gamma   cm³/mol

   OH-             1.553e-07   8.967e-08    -6.809    -7.047    -0.238     -2.07
   H+              1.467e-07   1.089e-07    -6.834    -6.963    -0.129      0.00
   H2O             5.551e+01   9.653e-01     1.744    -0.015     0.000     18.07
Cl            1.022e+00
   Cl-             1.022e+00   6.209e-01     0.009    -0.207    -0.216     18.95
   HCl             8.560e-09   2.331e-08    -8.068    -7.633     0.435     20.36
H(0)          1.313e-25
   H2              6.564e-26   8.403e-26   -25.183   -25.076     0.107     14.99
Na            1.022e+00
   Na+             1.022e+00   7.487e-01     0.009    -0.126    -0.135     -0.29
O(0)          0.000e+00
   O2              0.000e+00   0.000e+00   -42.344   -42.242     0.102     30.40

------------------------------Saturation indices-------------------------------

  Phase               SI** log IAP   log K(298 K,   1 atm)

  H2(g)           -21.98    -25.08   -3.10  H2
  H2O(g)           -1.52     -0.02    1.50  H2O
  Halite           -1.90     -0.33    1.57  NaCl
  O2(g)           -39.35    -42.24   -2.89  O2

**For a gas, SI = log10(fugacity). Fugacity = pressure * phi / 1 atm.
  For ideal gases, phi = 1.

------------------
End of simulation.
------------------

------------------------------------
Reading input data for simulation 4.
------------------------------------

	SOLUTION_SPREAD
	units mmol/L
	density 1.3 calculate
	Na	Cl	pH	density	
			charge	calculate	
	1000	1000	7	1.4	
	END
-------------------------------------------
Beginning of initial solution calculations.
-------------------------------------------

Initial solution 4.	

-----------------------------Solution composition------------------------------

	Elements           Molality       Moles

	Cl                1.022e+00   1.022e+00
	Na                1.022e+00   1.022e+00

----------------------------Description of solution----------------------------

                                       pH  =   6.963      Charge balance
                                       pe  =   4.000    
      Specific Conductance (µS/cm,  25°C)  = 85867
                          Density (g/cm³)  =   1.03688 (Iterated) 
                               Volume (L)  =   1.02204
                        Viscosity (mPa s)  =   0.97524
                        Activity of water  =   0.965
                 Ionic strength (mol/kgw)  =   1.022e+00
                       Mass of water (kg)  =   1.000e+00
                 Total alkalinity (eq/kg)  =  -8.025e-18
                         Temperature (°C)  =  25.00
                  Electrical balance (eq)  =   9.471e-16
 Percent error, 100*(Cat-|An|)/(Cat+|An|)  =   0.00
                               Iterations  =   4 (24 overall)
                                  Total H  = 1.110124e+02
                                  Total O  = 5.550622e+01

----------------------------Distribution of species----------------------------

                                               Log       Log       Log    mole V
   Species          Molality    Activity  Molality  Activity     Gamma   cm³/mol

   OH-             1.553e-07   8.967e-08    -6.809    -7.047    -0.238     -2.07
   H+              1.467e-07   1.089e-07    -6.834    -6.963    -0.129      0.00
   H2O             5.551e+01   9.653e-01     1.744    -0.015     0.000     18.07
Cl            1.022e+00
   Cl-             1.022e+00   6.209e-01     0.009    -0.207    -0.216     18.95
   HCl             8.560e-09   2.331e-08    -8.068    -7.633     0.435     20.36
H(0)          1.313e-25
   H2              6.564e-26   8.403e-26   -25.183   -25.076     0.107     14.99
Na            1.022e+00
   Na+             1.022e+00   7.487e-01     0.009    -0.126    -0.135     -0.29
O(0)          0.000e+00
   O2              0.000e+00   0.000e+00   -42.344   -42.242     0.102     30.40

------------------------------Saturation indices-------------------------------

  Phase               SI** log IAP   log K(298 K,   1 atm)

  H2(g)           -21.98    -25.08   -3.10  H2
  H2O(g)           -1.52     -0.02    1.50  H2O
  Halite           -1.90     -0.33    1.57  NaCl
  O2(g)           -39.35    -42.24   -2.89  O2

**For a gas, SI = log10(fugacity). Fugacity = pressure * phi / 1 atm.
  For ideal gases, phi = 1.

------------------
End of simulation.
------------------

------------------------------------
Reading input data for simulation 5.
------------------------------------

	SOLUTION_SPREAD
	units mmol/L
	Na	Cl	pH	density	
			charge		
	1000	1000	7	1	
	END
-------------------------------------------
Beginning of initial solution calculations.
-------------------------------------------

Initial solution 5.	

-----------------------------Solution composition------------------------------

	Elements           Molality       Moles

	Cl                1.062e+00   1.062e+00
	Na                1.062e+00   1.062e+00

----------------------------Description of solution----------------------------

                                       pH  =   6.962      Charge balance
                                       pe  =   4.000    
      Specific Conductance (µS/cm,  25°C)  = 88654
                          Density (g/cm³)  =   1.03837
                               Volume (L)  =   1.02282
                        Viscosity (mPa s)  =   0.97895
                        Activity of water  =   0.964
                 Ionic strength (mol/kgw)  =   1.062e+00
                       Mass of water (kg)  =   1.000e+00
                 Total alkalinity (eq/kg)  =   3.309e-17
                         Temperature (°C)  =  25.00
                  Electrical balance (eq)  =   8.072e-16
 Percent error, 100*(Cat-|An|)/(Cat+|An|)  =   0.00
                               Iterations  =   4
                                  Total H  = 1.110124e+02
                                  Total O  = 5.550622e+01

----------------------------Distribution of species----------------------------

                                               Log       Log       Log    mole V
   Species          Molality    Activity  Molality  Activity     Gamma   cm³/mol

   OH-             1.556e-07   8.944e-08    -6.808    -7.048    -0.241     -2.01
   H+              1.471e-07   1.091e-07    -6.832    -6.962    -0.130      0.00
   H2O             5.551e+01   9.639e-01     1.744    -0.016     0.000     18.07
Cl            1.062e+00
   Cl-             1.062e+00   6.433e-01     0.026    -0.192    -0.218     18.97
   HCl             8.536e-09   2.417e-08    -8.069    -7.617     0.452     20.36
H(0)          1.303e-25
   H2              6.515e-26   8.423e-26   -25.186   -25.075     0.112     14.99
Na            1.062e+00
   Na+             1.062e+00   7.807e-01     0.026    -0.107    -0.134     -0.27
O(0)          0.000e+00
   O2              0.000e+00   0.000e+00   -42.352   -42.245     0.106     30.40

------------------------------Saturation indices-------------------------------

  Phase               SI** log IAP   log K(298 K,   1 atm)

  H2(g)           -21.98    -25.07   -3.10  H2
  H2O(g)           -1.52     -0.02    1.50  H2O
  Halite           -1.87     -0.30    1.57  NaCl
  O2(g)           -39.35    -42.25   -2.89  O2

**For a gas, SI = log10(fugacity). Fugacity = pressure * phi / 1 atm.
  For ideal gases, phi = 1.

------------------
End of simulation.
------------------

------------------------------------
Reading input data for simulation 6.
------------------------------------

	SOLUTION 1 
	        units   mg/L
	        pH      8.22
	        pe      8.451
	        density 10.023 calculate
	        temp    25.0
	        redox   O(0)/O(-2)
	        Ca              412.3
	        Mg              1291.8
	        Na              10768.0
	        K               399.1
	        Fe              0.002
	        Mn              0.0002  pe
	        Si              4.28
	        Cl              19353.0
	        Alkalinity      141.682 as HCO3
	        S(6)            2712.0
	        N(5)            0.29    gfw   62.0
	        N(-3)           0.03    as    NH4
	        O(0)            1.0     O2(g) -0.7
	END
-------------------------------------------
Beginning of initial solution calculations.
-------------------------------------------

Initial solution 1.	

-----------------------------Solution composition------------------------------

	Elements           Molality       Moles

	Alkalinity        2.351e-03   2.351e-03
	Ca                1.042e-02   1.042e-02
	Cl                5.527e-01   5.527e-01
	Fe                3.626e-08   3.626e-08
	K                 1.033e-02   1.033e-02
	Mg                5.380e-02   5.380e-02
	Mn                3.686e-09   3.686e-09
	N(-3)             1.684e-06   1.684e-06
	N(5)              4.736e-06   4.736e-06
	Na                4.743e-01   4.743e-01
	O(0)              4.393e-04   4.393e-04  Equilibrium with O2(g)
	S(6)              2.859e-02   2.859e-02
	Si                7.213e-05   7.213e-05

----------------------------Description of solution----------------------------

                                       pH  =   8.220    
                                       pe  =   8.451    
      Specific Conductance (µS/cm,  25°C)  = 51874
                          Density (g/cm³)  =   1.02268 (Iterated) 
                               Volume (L)  =   1.01256
                        Viscosity (mPa s)  =   0.95515
                        Activity of water  =   0.981
                 Ionic strength (mol/kgw)  =   6.584e-01
                       Mass of water (kg)  =   1.000e+00
                    Total carbon (mol/kg)  =   2.183e-03
                       Total CO2 (mol/kg)  =   2.183e-03
                         Temperature (°C)  =  25.00
                  Electrical balance (eq)  =   7.754e-04
 Percent error, 100*(Cat-|An|)/(Cat+|An|)  =   0.07
                               Iterations  =   7 (42 overall)
                                  Total H  = 1.110147e+02
                                  Total O  = 5.562785e+01

---------------------------------Redox couples---------------------------------

	Redox couple             pe  Eh (volts)

	N(-3)/N(5)           4.6759      0.2766
	O(-2)/O(0)          12.4017      0.7336

----------------------------Distribution of species----------------------------

                                               Log       Log       Log    mole V
   Species          Molality    Activity  Molality  Activity     Gamma   cm³/mol

   OH-             2.698e-06   1.648e-06    -5.569    -5.783    -0.214     -2.66
   H+              7.975e-09   6.026e-09    -8.098    -8.220    -0.122      0.00
   H2O             5.551e+01   9.810e-01     1.744    -0.008     0.000     18.07
C(4)          2.183e-03
   HCO3-           1.585e-03   1.085e-03    -2.800    -2.965    -0.165     27.95
   MgHCO3+         2.750e-04   1.734e-04    -3.561    -3.761    -0.200      5.82
   NaHCO3          1.423e-04   1.789e-04    -3.847    -3.747     0.099     17.66
   MgCO3           9.457e-05   1.100e-04    -4.024    -3.958     0.066    -17.09
   CO3-2           4.029e-05   8.446e-06    -4.395    -5.073    -0.679     -0.72
   CaCO3           2.957e-05   3.441e-05    -4.529    -4.463     0.066    -14.60
   CO2             1.356e-05   1.499e-05    -4.868    -4.824     0.043     34.79
   KHCO3           2.627e-06   3.057e-06    -5.581    -5.515     0.066     21.42
   CaHCO3+         3.330e-10   2.308e-10    -9.478    -9.637    -0.159      9.95
   MnCO3           2.838e-10   3.302e-10    -9.547    -9.481     0.066     (0)  
   MnHCO3+         7.163e-11   4.761e-11   -10.145   -10.322    -0.177     (0)  
   (CO2)2          3.303e-12   3.651e-12   -11.481   -11.438     0.043     68.75
   FeCO3           1.919e-20   2.233e-20   -19.717   -19.651     0.066     (0)  
   FeHCO3+         1.605e-20   1.196e-20   -19.794   -19.922    -0.128     (0)  
Ca            1.042e-02
   Ca+2            9.679e-03   2.426e-03    -2.014    -2.615    -0.601    -16.71
   CaSO4           7.079e-04   7.573e-04    -3.150    -3.121     0.029      7.22
   CaCO3           2.957e-05   3.441e-05    -4.529    -4.463     0.066    -14.60
   CaOH+           8.795e-08   6.554e-08    -7.056    -7.183    -0.128     (0)  
   CaHCO3+         3.330e-10   2.308e-10    -9.478    -9.637    -0.159      9.95
   CaHSO4+         5.131e-11   3.824e-11   -10.290   -10.417    -0.128     (0)  
Cl            5.527e-01
   Cl-             5.527e-01   3.494e-01    -0.257    -0.457    -0.199     18.78
   MnCl+           1.054e-09   7.008e-10    -8.977    -9.154    -0.177     -2.79
   HCl             3.805e-10   7.253e-10    -9.420    -9.139     0.280     20.36
   MnCl2           9.186e-11   1.069e-10   -10.037    -9.971     0.066     85.89
   MnCl3-          1.548e-11   1.029e-11   -10.810   -10.988    -0.177     45.74
   FeCl+2          1.435e-18   2.801e-19   -17.843   -18.553    -0.710     (0)  
   FeCl2+          6.579e-19   4.373e-19   -18.182   -18.359    -0.177     (0)  
   FeCl+           7.135e-20   5.317e-20   -19.147   -19.274    -0.128     (0)  
   FeCl3           1.313e-20   1.528e-20   -19.882   -19.816     0.066     (0)  
Fe(2)         6.305e-19
   Fe+2            4.777e-19   1.102e-19   -18.321   -18.958    -0.637    -20.73
   FeCl+           7.135e-20   5.317e-20   -19.147   -19.274    -0.128     (0)  
   FeSO4           3.770e-20   4.387e-20   -19.424   -19.358     0.066     30.28
   FeCO3           1.919e-20   2.233e-20   -19.717   -19.651     0.066     (0)  
   FeHCO3+         1.605e-20   1.196e-20   -19.794   -19.922    -0.128     (0)  
   FeOH+           8.539e-21   5.675e-21   -20.069   -20.246    -0.177     (0)  
   Fe(OH)2         6.758e-24   7.864e-24   -23.170   -23.104     0.066     (0)  
   Fe(OH)3-        7.157e-26   4.757e-26   -25.145   -25.323    -0.177     (0)  
   FeHSO4+         2.332e-27   1.738e-27   -26.632   -26.760    -0.128     (0)  
Fe(3)         3.626e-08
   Fe(OH)3         2.711e-08   3.155e-08    -7.567    -7.501     0.066     (0)  
   Fe(OH)4-        6.924e-09   4.685e-09    -8.160    -8.329    -0.170     (0)  
   Fe(OH)2+        2.223e-09   1.504e-09    -8.653    -8.823    -0.170     (0)  
   FeOH+2          1.430e-13   2.790e-14   -12.845   -13.554    -0.710     (0)  
   FeCl+2          1.435e-18   2.801e-19   -17.843   -18.553    -0.710     (0)  
   FeSO4+          9.802e-19   6.515e-19   -18.009   -18.186    -0.177     (0)  
   FeCl2+          6.579e-19   4.373e-19   -18.182   -18.359    -0.177     (0)  
   Fe+3            3.310e-19   2.655e-20   -18.480   -19.576    -1.096     (0)  
   Fe(SO4)2-       4.281e-20   3.190e-20   -19.368   -19.496    -0.128     (0)  
   FeCl3           1.313e-20   1.528e-20   -19.882   -19.816     0.066     (0)  
   Fe2(OH)2+4      2.317e-24   2.096e-26   -23.635   -25.679    -2.044     (0)  
   FeHSO4+2        3.409e-26   1.051e-26   -25.467   -25.978    -0.511     (0)  
   Fe3(OH)4+5      1.028e-29   6.587e-33   -28.988   -32.181    -3.193     (0)  
H(0)          0.000e+00
   H2              0.000e+00   0.000e+00   -44.463   -44.393     0.069     14.99
K             1.033e-02
   K+              1.009e-02   6.307e-03    -1.996    -2.200    -0.204      9.65
   KSO4-           2.380e-04   2.148e-04    -3.623    -3.668    -0.045     34.99
   KHCO3           2.627e-06   3.057e-06    -5.581    -5.515     0.066     21.42
Mg            5.380e-02
   Mg+2            4.730e-02   1.365e-02    -1.325    -1.865    -0.540    -20.42
   MgSO4           5.910e-03   8.002e-03    -2.228    -2.097     0.132     -0.40
   MgHCO3+         2.750e-04   1.734e-04    -3.561    -3.761    -0.200      5.82
   Mg(SO4)2-2      2.077e-04   5.900e-05    -3.682    -4.229    -0.547     48.64
   MgCO3           9.457e-05   1.100e-04    -4.024    -3.958     0.066    -17.09
   MgOH+           1.144e-05   8.072e-06    -4.942    -5.093    -0.151     (0)  
Mn(2)         3.686e-09
   Mn+2            2.133e-09   4.923e-10    -8.671    -9.308    -0.637    -16.39
   MnCl+           1.054e-09   7.008e-10    -8.977    -9.154    -0.177     -2.79
   MnCO3           2.838e-10   3.302e-10    -9.547    -9.481     0.066     (0)  
   MnCl2           9.186e-11   1.069e-10   -10.037    -9.971     0.066     85.89
   MnHCO3+         7.163e-11   4.761e-11   -10.145   -10.322    -0.177     (0)  
   MnSO4           3.271e-11   2.819e-11   -10.485   -10.550    -0.065     17.15
   MnCl3-          1.548e-11   1.029e-11   -10.810   -10.988    -0.177     45.74
   MnOH+           3.099e-12   2.060e-12   -11.509   -11.686    -0.177     (0)  
   Mn(OH)3-        5.066e-20   3.367e-20   -19.295   -19.473    -0.177     (0)  
   Mn(NO3)2        1.310e-20   1.525e-20   -19.883   -19.817     0.066     41.04
Mn(3)         5.358e-26
   Mn+3            5.358e-26   4.297e-27   -25.271   -26.367    -1.096     (0)  
N(-3)         1.684e-06
   NH4+            1.545e-06   8.719e-07    -5.811    -6.060    -0.248     18.48
   NH3             7.086e-08   8.246e-08    -7.150    -7.084     0.066     24.42
   NH4SO4-         6.858e-08   4.399e-08    -7.164    -7.357    -0.193     39.42
N(5)          4.736e-06
   NO3-            4.736e-06   2.789e-06    -5.325    -5.555    -0.230     30.28
   Mn(NO3)2        1.310e-20   1.525e-20   -19.883   -19.817     0.066     41.04
Na            4.743e-01
   Na+             4.650e-01   3.336e-01    -0.333    -0.477    -0.144     -0.51
   NaSO4-          9.128e-03   6.559e-03    -2.040    -2.183    -0.144     21.65
   NaHCO3          1.423e-04   1.789e-04    -3.847    -3.747     0.099     17.66
   Na2SO4          9.328e-07   1.067e-06    -6.030    -5.972     0.058     47.96
O(0)          4.393e-04
   O2              2.196e-04   2.556e-04    -3.658    -3.592     0.066     30.40
S(6)          2.859e-02
   SO4-2           1.219e-02   2.238e-03    -1.914    -2.650    -0.736     17.07
   NaSO4-          9.128e-03   6.559e-03    -2.040    -2.183    -0.144     21.65
   MgSO4           5.910e-03   8.002e-03    -2.228    -2.097     0.132     -0.40
   CaSO4           7.079e-04   7.573e-04    -3.150    -3.121     0.029      7.22
   KSO4-           2.380e-04   2.148e-04    -3.623    -3.668    -0.045     34.99
   Mg(SO4)2-2      2.077e-04   5.900e-05    -3.682    -4.229    -0.547     48.64
   Na2SO4          9.328e-07   1.067e-06    -6.030    -5.972     0.058     47.96
   NH4SO4-         6.858e-08   4.399e-08    -7.164    -7.357    -0.193     39.42
   HSO4-           1.760e-09   1.311e-09    -8.755    -8.882    -0.128     40.96
   CaHSO4+         5.131e-11   3.824e-11   -10.290   -10.417    -0.128     (0)  
   MnSO4           3.271e-11   2.819e-11   -10.485   -10.550    -0.065     17.15
   FeSO4+          9.802e-19   6.515e-19   -18.009   -18.186    -0.177     (0)  
   Fe(SO4)2-       4.281e-20   3.190e-20   -19.368   -19.496    -0.128     (0)  
   FeSO4           3.770e-20   4.387e-20   -19.424   -19.358     0.066     30.28
   FeHSO4+2        3.409e-26   1.051e-26   -25.467   -25.978    -0.511     (0)  
   FeHSO4+         2.332e-27   1.738e-27   -26.632   -26.760    -0.128     (0)  
Si            7.213e-05
   H4SiO4          6.901e-05   8.031e-05    -4.161    -4.095     0.066     52.08
   H3SiO4-         3.117e-06   1.965e-06    -5.506    -5.707    -0.200     28.71
   H2SiO4-2        1.058e-10   2.218e-11    -9.975   -10.654    -0.679     (0)  

------------------------------Saturation indices-------------------------------

  Phase               SI** log IAP   log K(298 K,   1 atm)

  Anhydrite        -0.95     -5.27   -4.31  CaSO4
  Aragonite         0.65     -7.69   -8.34  CaCO3
  Arcanite         -5.17     -7.05   -1.88  K2SO4
  Calcite           0.76     -7.69   -8.45  CaCO3
  Chalcedony       -0.53     -4.08   -3.55  SiO2
  Chrysotile        3.33     35.53   32.20  Mg3Si2O5(OH)4
  CO2(g)           -3.36     -4.82   -1.47  CO2
  Dolomite          2.46    -14.63  -17.08  CaMg(CO3)2
  Epsomite         -2.83     -4.57   -1.74  MgSO4:7H2O
  Fe(OH)3(a)        0.17      5.06    4.89  Fe(OH)3
  Goethite          6.07      5.07   -1.00  FeOOH
  Gypsum           -0.73     -5.28   -4.55  CaSO4:2H2O
  H2(g)           -41.29    -44.39   -3.10  H2
  H2O(g)           -1.51     -0.01    1.50  H2O
  Halite           -2.50     -0.93    1.57  NaCl
  Hausmannite       1.58     62.61   61.03  Mn3O4
  Hematite         14.15     10.14   -4.01  Fe2O3
  Hexahydrite      -3.00     -4.56   -1.57  MgSO4:6H2O
  Jarosite-K       -7.75    -16.96   -9.21  KFe3(SO4)2(OH)6
  Kieserite        -3.36     -4.52   -1.16  MgSO4:H2O
  Manganite         2.40     27.74   25.34  MnOOH
  Melanterite     -19.46    -21.67   -2.21  FeSO4:7H2O
  Mirabilite       -2.98     -3.69   -0.71  Na2SO4:10H2O
  NH3(g)           -8.88     -7.08    1.80  NH3
  O2(g)            -0.70     -3.59   -2.89  O2	 Pressure   0.2 atm, phi 1.000
  Pyrochroite      -8.08      7.12   15.20  Mn(OH)2
  Pyrolusite        6.97     48.35   41.38  MnO2:H2O
  Quartz           -0.10     -4.08   -3.98  SiO2
  Rhodochrosite    -3.25    -14.38  -11.13  MnCO3
  Sepiolite         1.11     16.87   15.76  Mg2Si3O7.5OH:3H2O
  Sepiolite(d)     -1.79     16.87   18.66  Mg2Si3O7.5OH:3H2O
  Siderite        -13.14    -24.03  -10.89  FeCO3
  SiO2(a)          -1.37     -4.08   -2.71  SiO2
  Sylvite          -3.56     -2.66    0.90  KCl
  Talc              5.98     27.38   21.40  Mg3Si4O10(OH)2
  Thenardite       -4.25     -3.60    0.65  Na2SO4

**For a gas, SI = log10(fugacity). Fugacity = pressure * phi / 1 atm.
  For ideal gases, phi = 1.

------------------
End of simulation.
------------------

------------------------------------
Reading input data for simulation 7.
------------------------------------

