WARNING: Database file from DATABASE keyword is used; command line argument ignored.
   Input file: CalPortDiff
  Output file: CalPortDiff.out
Database file: ../database/phreeqc.dat

------------------
Reading data base.
------------------

	SOLUTION_MASTER_SPECIES
	SOLUTION_SPECIES
	PHASES
	GAS_BINARY_PARAMETERS
	EXCHANGE_MASTER_SPECIES
	EXCHANGE_SPECIES
	SURFACE_MASTER_SPECIES
	SURFACE_SPECIES
	MEAN_GAMMAS
	RATES
	END
------------------------------------
Reading input data for simulation 1.
------------------------------------

	database ../database/phreeqc.dat
	SELECTED_OUTPUT 101
	    file                 CalPortDiff_101.sel
	USER_PUNCH 101
	    headings Mu SC
	    start
	10 PUNCH STR_F$(MU, 20, 12)
	20 PUNCH STR_F$(SC, 20, 10)
	    end
	PHASES
		Portlandite
			Ca(OH)2 + 2H+ = Ca+2 + 2H2O
			log_k 22.804
			delta_h -128.62 kJ
		Calcite
			CaCO3 = CO3-2 + Ca+2
			log_k -8.48
			delta_h -2.297 kcal
	RATES
		Calcite
		start
			10 k = 1e-11  # Calcite precipitation rate constant mol.cm-2.s-1
			20 A0 = M0 * 100.09 / 2.71 / 100^3 / 10e-6 * 6      # Initial surface for 10 micron cubes
			30 rate = k * (A0/1) * (M/M0)^0.67 * (1 - SR("Calcite"))
			60 moles = rate * TIME  
			70 save moles 
			80 put(M,1)
		end 
		Portlandite
		start
			10 k = 7.2e-10 # Portlandite precipitation rate constant mol.cm-2.s-1
			20 A0 = M0 * 74.09e-3 / 2.26 / 100^3 / 10e-6 * 6      # Initial surface for 10 micron cubes
			30 rate = k * (A0/1) * (M/M0)^0.67 * (1-SR("Portlandite"))
			60 moles = rate * TIME
			70 save moles
			80 put(M,2)
			120 gp = (get(1) * 0.10009 / 2.71) + (get(2) * 0.07409 / 2.26)      # (moles * Mol wht:kg/mol) / density:kg/L = Liter
			150 new_por = get_por(cell_no) * (1 - gp) 		# adjust porosity for Calcite and Portlandite
			160 if new_por < 0 then new_por = 0
			170 change_por(new_por, cell_no)            		# define new porosity to PHREEQC
	 	end
	END
------------------
End of simulation.
------------------

------------------------------------
Reading input data for simulation 2.
------------------------------------

	KINETICS 1-40   # Two kinetic reactions for all cells 
		Calcite
		m0 1.399e-3 # mol/liter 0.06216
		Portlandite
		m0 1.036 # mol/liter concrete
	SOLUTION 0		# groundwater composition # Influent at cell 1
		units mg/l
		temp 16.0
		pH 7.49
		S(6) 50
		Ca 35
		Na 100
		K 4
		Mg 9
		Cl 45
		Alkalinity 300 as HCO3
	SOLUTION 1 		# Bentonite clay pore water
		units mmol/l
		temp 16.0
		pH 8.5
		Si 0.1
		Ca 0.05	# 2 mg/L
		Na 15.6
		K  0.2
		Mg  0.06
		Cl  0.7
		S(6) 0.02
		Alkalinity 14.4 as HCO3
	SOLUTION 2		# concrete pore water composition in equilibrium
		units mmol/l
		temp 16.0
		pH 13.57
		Al 1.088e-01
		C(4) 4.399e-01
		Ca 6.597
		Mg 1.038e-05
		S(6) 8.625
		Si 1.355e-01
		Na 1.370e2
		K  3.694e2
	END
-------------------------------------------
Beginning of initial solution calculations.
-------------------------------------------

Initial solution 0.	

-----------------------------Solution composition------------------------------

	Elements           Molality       Moles

	Alkalinity        4.919e-03   4.919e-03
	Ca                8.737e-04   8.737e-04
	Cl                1.270e-03   1.270e-03
	K                 1.024e-04   1.024e-04
	Mg                3.704e-04   3.704e-04
	Na                4.352e-03   4.352e-03
	S(6)              5.208e-04   5.208e-04

----------------------------Description of solution----------------------------

                                       pH  =   7.490    
                                       pe  =   4.000    
      Specific Conductance (µS/cm,  16°C)  = 576
                          Density (g/cm³)  =   0.99937
                               Volume (L)  =   1.00119
                        Viscosity (mPa s)  =   1.11069
                        Activity of water  =   1.000
                 Ionic strength (mol/kgw)  =   8.643e-03
                       Mass of water (kg)  =   1.000e+00
                    Total carbon (mol/kg)  =   5.276e-03
                       Total CO2 (mol/kg)  =   5.276e-03
                         Temperature (°C)  =  16.00
                  Electrical balance (eq)  =  -2.880e-04
 Percent error, 100*(Cat-|An|)/(Cat+|An|)  =  -2.07
                               Iterations  =   7
                                  Total H  = 1.110173e+02
                                  Total O  = 5.552376e+01

----------------------------Distribution of species----------------------------

                                               Log       Log       Log    mole V
   Species          Molality    Activity  Molality  Activity     Gamma   cm³/mol

   OH-             1.680e-07   1.524e-07    -6.775    -6.817    -0.042     -4.50
   H+              3.521e-08   3.236e-08    -7.453    -7.490    -0.037      0.00
   H2O             5.551e+01   9.998e-01     1.744    -0.000     0.000     18.04
C(4)          5.276e-03
   HCO3-           4.872e-03   4.443e-03    -2.312    -2.352    -0.040     23.85
   CO2             3.698e-04   3.703e-04    -3.432    -3.431     0.001     34.37
   MgHCO3+         1.310e-05   1.191e-05    -4.883    -4.924    -0.042      5.22
   NaHCO3          7.821e-06   7.845e-06    -5.107    -5.105     0.001     16.86
   CO3-2           7.600e-06   5.252e-06    -5.119    -5.280    -0.161     -5.42
   CaCO3           4.451e-06   4.460e-06    -5.352    -5.351     0.001    -14.63
   MgCO3           1.029e-06   1.031e-06    -5.987    -5.987     0.001    -17.08
   KHCO3           1.573e-07   1.576e-07    -6.803    -6.803     0.001     20.67
   (CO2)2          1.358e-09   1.360e-09    -8.867    -8.866     0.001     67.90
   CaHCO3+         3.291e-11   3.005e-11   -10.483   -10.522    -0.040      9.32
Ca            8.737e-04
   Ca+2            8.496e-04   5.867e-04    -3.071    -3.232    -0.161    -18.10
   CaSO4           1.970e-05   1.972e-05    -4.706    -4.705     0.000      6.15
   CaCO3           4.451e-06   4.460e-06    -5.352    -5.351     0.001    -14.63
   CaOH+           3.310e-09   3.008e-09    -8.480    -8.522    -0.041     (0)  
   CaHCO3+         3.291e-11   3.005e-11   -10.483   -10.522    -0.040      9.32
   CaHSO4+         6.581e-12   5.982e-12   -11.182   -11.223    -0.041     (0)  
Cl            1.270e-03
   Cl-             1.270e-03   1.153e-03    -2.896    -2.938    -0.042     17.78
   HCl             1.348e-11   1.359e-11   -10.870   -10.867     0.004     19.65
H(0)          1.623e-26
   H2              8.114e-27   8.131e-27   -26.091   -26.090     0.001     14.25
K             1.024e-04
   K+              1.017e-04   9.231e-05    -3.993    -4.035    -0.042      8.73
   KSO4-           4.859e-07   4.447e-07    -6.313    -6.352    -0.038     20.79
   KHCO3           1.573e-07   1.576e-07    -6.803    -6.803     0.001     20.67
Mg            3.704e-04
   Mg+2            3.403e-04   2.363e-04    -3.468    -3.626    -0.158    -21.31
   MgSO4           1.590e-05   1.597e-05    -4.798    -4.797     0.002     -1.28
   MgHCO3+         1.310e-05   1.191e-05    -4.883    -4.924    -0.042      5.22
   MgCO3           1.029e-06   1.031e-06    -5.987    -5.987     0.001    -17.08
   Mg(SO4)2-2      2.898e-08   2.034e-08    -7.538    -7.692    -0.154     34.57
   MgOH+           1.255e-08   1.147e-08    -7.902    -7.941    -0.039     (0)  
Na            4.352e-03
   Na+             4.333e-03   3.944e-03    -2.363    -2.404    -0.041     -1.93
   NaSO4-          1.122e-05   1.020e-05    -4.950    -4.991    -0.041     16.57
   NaHCO3          7.821e-06   7.845e-06    -5.107    -5.105     0.001     16.86
   Na2SO4          7.703e-12   7.716e-12   -11.113   -11.113     0.001     53.02
O(0)          0.000e+00
   O2              0.000e+00   0.000e+00   -43.270   -43.270     0.001     29.61
S(6)          5.208e-04
   SO4-2           4.734e-04   3.256e-04    -3.325    -3.487    -0.163     13.11
   CaSO4           1.970e-05   1.972e-05    -4.706    -4.705     0.000      6.15
   MgSO4           1.590e-05   1.597e-05    -4.798    -4.797     0.002     -1.28
   NaSO4-          1.122e-05   1.020e-05    -4.950    -4.991    -0.041     16.57
   KSO4-           4.859e-07   4.447e-07    -6.313    -6.352    -0.038     20.79
   Mg(SO4)2-2      2.898e-08   2.034e-08    -7.538    -7.692    -0.154     34.57
   HSO4-           9.330e-10   8.481e-10    -9.030    -9.072    -0.041     39.60
   Na2SO4          7.703e-12   7.716e-12   -11.113   -11.113     0.001     53.02
   CaHSO4+         6.581e-12   5.982e-12   -11.182   -11.223    -0.041     (0)  

------------------------------Saturation indices-------------------------------

  Phase               SI** log IAP   log K(289 K,   1 atm)

  Anhydrite        -2.55     -6.72   -4.17  CaSO4
  Aragonite        -0.23     -8.51   -8.28  CaCO3
  Arcanite         -9.55    -11.56   -2.01  K2SO4
  Calcite          -0.08     -8.51   -8.43  CaCO3
  CO2(g)           -2.08     -3.43   -1.35  CO2
  Dolomite         -0.47    -17.42  -16.95  CaMg(CO3)2
  Epsomite         -5.32     -7.11   -1.79  MgSO4:7H2O
  Gypsum           -2.20     -6.72   -4.52  CaSO4:2H2O
  H2(g)           -23.01    -26.09   -3.08  H2
  H2O(g)           -1.74     -0.00    1.74  H2O
  Halite           -6.90     -5.34    1.56  NaCl
  Hexahydrite      -5.54     -7.11   -1.58  MgSO4:6H2O
  Kieserite        -5.88     -7.11   -1.24  MgSO4:H2O
  Mirabilite       -6.95     -8.30   -1.35  Na2SO4:10H2O
  O2(g)           -40.45    -43.27   -2.82  O2
  Portlandite     -11.76     11.75   23.51  Ca(OH)2
  Sylvite          -7.83     -6.97    0.85  KCl
  Thenardite       -9.06     -8.30    0.77  Na2SO4

**For a gas, SI = log10(fugacity). Fugacity = pressure * phi / 1 atm.
  For ideal gases, phi = 1.

Initial solution 1.	

-----------------------------Solution composition------------------------------

	Elements           Molality       Moles

	Alkalinity        1.442e-02   1.442e-02
	Ca                5.006e-05   5.006e-05
	Cl                7.009e-04   7.009e-04
	K                 2.003e-04   2.003e-04
	Mg                6.008e-05   6.008e-05
	Na                1.562e-02   1.562e-02
	S(6)              2.003e-05   2.003e-05
	Si                1.001e-04   1.001e-04

----------------------------Description of solution----------------------------

                                       pH  =   8.500    
                                       pe  =   4.000    
      Specific Conductance (µS/cm,  16°C)  = 1102
                          Density (g/cm³)  =   0.99989
                               Volume (L)  =   1.00138
                        Viscosity (mPa s)  =   1.11249
                        Activity of water  =   0.999
                 Ionic strength (mol/kgw)  =   1.585e-02
                       Mass of water (kg)  =   1.000e+00
                    Total carbon (mol/kg)  =   1.426e-02
                       Total CO2 (mol/kg)  =   1.426e-02
                         Temperature (°C)  =  16.00
                  Electrical balance (eq)  =   8.811e-04
 Percent error, 100*(Cat-|An|)/(Cat+|An|)  =   2.84
                               Iterations  =   7 (14 overall)
                                  Total H  = 1.110267e+02
                                  Total O  = 5.554939e+01

----------------------------Distribution of species----------------------------

                                               Log       Log       Log    mole V
   Species          Molality    Activity  Molality  Activity     Gamma   cm³/mol

   OH-             1.771e-06   1.559e-06    -5.752    -5.807    -0.055     -4.46
   H+              3.517e-09   3.162e-09    -8.454    -8.500    -0.046      0.00
   H2O             5.551e+01   9.995e-01     1.744    -0.000     0.000     18.04
C(4)          1.426e-02
   HCO3-           1.383e-02   1.228e-02    -1.859    -1.911    -0.052     23.93
   CO3-2           2.393e-04   1.486e-04    -3.621    -3.828    -0.207     -5.27
   CO2             9.984e-05   1.001e-04    -4.001    -4.000     0.001     34.37
   NaHCO3          7.526e-05   7.568e-05    -4.123    -4.121     0.002     16.86
   CaCO3           5.872e-06   5.893e-06    -5.231    -5.230     0.002    -14.63
   MgHCO3+         5.043e-06   4.450e-06    -5.297    -5.352    -0.054      5.25
   MgCO3           3.931e-06   3.945e-06    -5.405    -5.404     0.002    -17.08
   KHCO3           8.259e-07   8.290e-07    -6.083    -6.081     0.002     20.67
   (CO2)2          9.911e-11   9.935e-11   -10.004   -10.003     0.001     67.90
   CaHCO3+         4.361e-12   3.880e-12   -11.360   -11.411    -0.051      9.34
Ca            5.006e-05
   Ca+2            4.416e-05   2.740e-05    -4.355    -4.562    -0.207    -18.02
   CaCO3           5.872e-06   5.893e-06    -5.231    -5.230     0.002    -14.63
   CaSO4           3.213e-08   3.219e-08    -7.493    -7.492     0.001      6.15
   CaOH+           1.627e-09   1.437e-09    -8.789    -8.842    -0.054     (0)  
   CaHCO3+         4.361e-12   3.880e-12   -11.360   -11.411    -0.051      9.34
   CaHSO4+         1.080e-15   9.543e-16   -14.967   -15.020    -0.054     (0)  
Cl            7.009e-04
   Cl-             7.009e-04   6.179e-04    -3.154    -3.209    -0.055     17.81
   HCl             7.008e-13   7.117e-13   -12.154   -12.148     0.007     19.65
H(0)          1.547e-28
   H2              7.735e-29   7.765e-29   -28.112   -28.110     0.002     14.25
K             2.003e-04
   K+              1.994e-04   1.757e-04    -3.700    -3.755    -0.055      8.75
   KHCO3           8.259e-07   8.290e-07    -6.083    -6.081     0.002     20.67
   KSO4-           3.309e-08   2.958e-08    -7.480    -7.529    -0.049     21.74
Mg            6.008e-05
   Mg+2            5.101e-05   3.195e-05    -4.292    -4.496    -0.203    -21.22
   MgHCO3+         5.043e-06   4.450e-06    -5.297    -5.352    -0.054      5.25
   MgCO3           3.931e-06   3.945e-06    -5.405    -5.404     0.002    -17.08
   MgSO4           7.491e-08   7.546e-08    -7.125    -7.122     0.003     -1.28
   MgOH+           1.779e-08   1.586e-08    -7.750    -7.800    -0.050     (0)  
   Mg(SO4)2-2      5.273e-12   3.360e-12   -11.278   -11.474    -0.196     35.69
Na            1.562e-02
   Na+             1.554e-02   1.376e-02    -1.808    -1.861    -0.053     -1.88
   NaHCO3          7.526e-05   7.568e-05    -4.123    -4.121     0.002     16.86
   NaSO4-          1.408e-06   1.244e-06    -5.851    -5.905    -0.054     16.75
   Na2SO4          3.273e-12   3.284e-12   -11.485   -11.484     0.001     53.02
O(0)          1.174e-39
   O2              5.868e-40   5.890e-40   -39.231   -39.230     0.002     29.61
S(6)          2.003e-05
   SO4-2           1.848e-05   1.138e-05    -4.733    -4.944    -0.210     13.18
   NaSO4-          1.408e-06   1.244e-06    -5.851    -5.905    -0.054     16.75
   MgSO4           7.491e-08   7.546e-08    -7.125    -7.122     0.003     -1.28
   KSO4-           3.309e-08   2.958e-08    -7.480    -7.529    -0.049     21.74
   CaSO4           3.213e-08   3.219e-08    -7.493    -7.492     0.001      6.15
   Mg(SO4)2-2      5.273e-12   3.360e-12   -11.278   -11.474    -0.196     35.69
   HSO4-           3.279e-12   2.897e-12   -11.484   -11.538    -0.054     39.63
   Na2SO4          3.273e-12   3.284e-12   -11.485   -11.484     0.001     53.02
   CaHSO4+         1.080e-15   9.543e-16   -14.967   -15.020    -0.054     (0)  
Si            1.001e-04
   H4SiO4          9.646e-05   9.681e-05    -4.016    -4.014     0.002     52.94
   H3SiO4-         3.670e-06   3.238e-06    -5.435    -5.490    -0.054     27.77
   H2SiO4-2        6.045e-11   3.753e-11   -10.219   -10.426    -0.207     (0)  

------------------------------Saturation indices-------------------------------

  Phase               SI** log IAP   log K(289 K,   1 atm)

  Anhydrite        -5.33     -9.51   -4.17  CaSO4
  Aragonite        -0.11     -8.39   -8.28  CaCO3
  Arcanite        -10.45    -12.45   -2.01  K2SO4
  Calcite           0.04     -8.39   -8.43  CaCO3
  Chalcedony       -0.35     -4.01   -3.66  SiO2
  Chrysotile       -3.86     29.49   33.35  Mg3Si2O5(OH)4
  CO2(g)           -2.64     -4.00   -1.35  CO2
  Dolomite          0.23    -16.71  -16.95  CaMg(CO3)2
  Epsomite         -7.65     -9.44   -1.79  MgSO4:7H2O
  Gypsum           -4.99     -9.51   -4.52  CaSO4:2H2O
  H2(g)           -25.03    -28.11   -3.08  H2
  H2O(g)           -1.74     -0.00    1.74  H2O
  Halite           -6.63     -5.07    1.56  NaCl
  Hexahydrite      -7.86     -9.44   -1.58  MgSO4:6H2O
  Kieserite        -8.20     -9.44   -1.24  MgSO4:H2O
  Mirabilite       -7.32     -8.67   -1.35  Na2SO4:10H2O
  O2(g)           -36.41    -39.23   -2.82  O2
  Portlandite     -11.07     12.44   23.51  Ca(OH)2
  Quartz            0.10     -4.01   -4.12  SiO2
  Sepiolite        -3.04     12.97   16.00  Mg2Si3O7.5OH:3H2O
  Sepiolite(d)     -5.69     12.97   18.66  Mg2Si3O7.5OH:3H2O
  SiO2(a)          -1.23     -4.01   -2.79  SiO2
  Sylvite          -7.82     -6.96    0.85  KCl
  Talc             -1.00     21.46   22.46  Mg3Si4O10(OH)2
  Thenardite       -9.44     -8.67    0.77  Na2SO4

**For a gas, SI = log10(fugacity). Fugacity = pressure * phi / 1 atm.
  For ideal gases, phi = 1.

Initial solution 2.	

-----------------------------Solution composition------------------------------

	Elements           Molality       Moles

	Al                1.116e-04   1.116e-04
	C(4)              4.512e-04   4.512e-04
	Ca                6.766e-03   6.766e-03
	K                 3.789e-01   3.789e-01
	Mg                1.065e-08   1.065e-08
	Na                1.405e-01   1.405e-01
	S(6)              8.847e-03   8.847e-03
	Si                1.390e-04   1.390e-04

----------------------------Description of solution----------------------------

                                       pH  =  13.570    
                                       pe  =   4.000    
      Specific Conductance (µS/cm,  16°C)  = 60259
                          Density (g/cm³)  =   1.02044
                               Volume (L)  =   1.00351
                        Viscosity (mPa s)  =   1.14262
                        Activity of water  =   0.986
                 Ionic strength (mol/kgw)  =   4.138e-01
                       Mass of water (kg)  =   1.000e+00
                 Total alkalinity (eq/kg)  =   2.838e-01
                       Total CO2 (mol/kg)  =   4.512e-04
                         Temperature (°C)  =  16.00
                  Electrical balance (eq)  =   2.318e-01
 Percent error, 100*(Cat-|An|)/(Cat+|An|)  =  28.46
                               Iterations  =   5 (19 overall)
                                  Total H  = 1.112954e+02
                                  Total O  = 5.582612e+01

----------------------------Distribution of species----------------------------

                                               Log       Log       Log    mole V
   Species          Molality    Activity  Molality  Activity     Gamma   cm³/mol

   OH-             2.775e-01   1.808e-01    -0.557    -0.743    -0.186     -3.58
   H+              3.481e-14   2.692e-14   -13.458   -13.570    -0.112      0.00
   H2O             5.551e+01   9.863e-01     1.744    -0.006     0.000     18.04
Al            1.116e-04
   Al(OH)4-        1.116e-04   7.614e-05    -3.952    -4.118    -0.166     (0)  
   Al(OH)3         1.106e-12   1.217e-12   -11.956   -11.915     0.041     (0)  
   Al(OH)2+        6.457e-19   4.558e-19   -18.190   -18.341    -0.151     (0)  
   AlOH+2          1.466e-26   3.637e-27   -25.834   -26.439    -0.605    -26.49
   Al+3            1.838e-34   1.815e-35   -33.736   -34.741    -1.005    -40.01
   AlSO4+          6.642e-35   4.531e-35   -34.178   -34.344    -0.166     (0)  
   Al(SO4)2-       1.791e-36   1.222e-36   -35.747   -35.913    -0.166     (0)  
   AlHSO4+2        0.000e+00   0.000e+00   -48.458   -48.996    -0.537     (0)  
C(4)          4.512e-04
   CO3-2           3.817e-04   9.471e-05    -3.418    -4.024    -0.605     -2.64
   CaCO3           6.944e-05   7.638e-05    -4.158    -4.117     0.041    -14.63
   HCO3-           9.372e-08   6.664e-08    -7.028    -7.176    -0.148     26.05
   KHCO3           5.768e-09   6.345e-09    -8.239    -8.198     0.041     20.67
   NaHCO3          2.612e-09   3.016e-09    -8.583    -8.521     0.062     16.86
   MgCO3           9.254e-12   1.018e-11   -11.034   -10.992     0.041    -17.08
   CO2             4.398e-15   4.683e-15   -14.357   -14.329     0.027     34.37
   CaHCO3+         5.948e-16   4.281e-16   -15.226   -15.368    -0.143      9.51
   MgHCO3+         1.464e-16   9.773e-17   -15.834   -16.010    -0.176      5.45
   (CO2)2          2.043e-31   2.176e-31   -30.690   -30.662     0.027     67.90
Ca            6.766e-03
   CaOH+           4.616e-03   3.388e-03    -2.336    -2.470    -0.134     (0)  
   Ca+2            2.031e-03   5.572e-04    -2.692    -3.254    -0.562    -17.17
   CaCO3           6.944e-05   7.638e-05    -4.158    -4.117     0.041    -14.63
   CaSO4           4.908e-05   5.120e-05    -4.309    -4.291     0.018      6.15
   CaHCO3+         5.948e-16   4.281e-16   -15.226   -15.368    -0.143      9.51
   CaHSO4+         1.761e-17   1.292e-17   -16.754   -16.889    -0.134     (0)  
H(0)          1.018e-38
   H2              5.090e-39   5.625e-39   -38.293   -38.250     0.043     14.25
K             3.789e-01
   K+              3.750e-01   2.478e-01    -0.426    -0.606    -0.180      9.17
   KSO4-           3.860e-03   3.265e-03    -2.413    -2.486    -0.073     32.42
   KHCO3           5.768e-09   6.345e-09    -8.239    -8.198     0.041     20.67
Mg            1.065e-08
   MgOH+           1.019e-08   7.443e-09    -7.992    -8.128    -0.137     (0)  
   Mg+2            4.249e-10   1.293e-10    -9.372    -9.888    -0.517    -20.39
   MgSO4           1.975e-11   2.390e-11   -10.704   -10.622     0.083     -1.28
   MgCO3           9.254e-12   1.018e-11   -11.034   -10.992     0.041    -17.08
   Mg(SO4)2-2      2.654e-13   8.325e-14   -12.576   -13.080    -0.503     43.27
   MgHCO3+         1.464e-16   9.773e-17   -15.834   -16.010    -0.176      5.45
Na            1.405e-01
   Na+             1.395e-01   1.011e-01    -0.855    -0.995    -0.140     -1.19
   NaSO4-          9.912e-04   7.151e-04    -3.004    -3.146    -0.142     19.94
   Na2SO4          1.274e-08   1.386e-08    -7.895    -7.858     0.037     53.02
   NaHCO3          2.612e-09   3.016e-09    -8.583    -8.521     0.062     16.86
O(0)          1.987e-19
   O2              9.935e-20   1.093e-19   -19.003   -18.961     0.041     29.61
S(6)          8.847e-03
   SO4-2           3.947e-03   8.904e-04    -2.404    -3.050    -0.647     14.80
   KSO4-           3.860e-03   3.265e-03    -2.413    -2.486    -0.073     32.42
   NaSO4-          9.912e-04   7.151e-04    -3.004    -3.146    -0.142     19.94
   CaSO4           4.908e-05   5.120e-05    -4.309    -4.291     0.018      6.15
   Na2SO4          1.274e-08   1.386e-08    -7.895    -7.858     0.037     53.02
   MgSO4           1.975e-11   2.390e-11   -10.704   -10.622     0.083     -1.28
   Mg(SO4)2-2      2.654e-13   8.325e-14   -12.576   -13.080    -0.503     43.27
   HSO4-           2.628e-15   1.929e-15   -14.580   -14.715    -0.134     40.06
   CaHSO4+         1.761e-17   1.292e-17   -16.754   -16.889    -0.134     (0)  
   AlSO4+          6.642e-35   4.531e-35   -34.178   -34.344    -0.166     (0)  
   Al(SO4)2-       1.791e-36   1.222e-36   -35.747   -35.913    -0.166     (0)  
   AlHSO4+2        0.000e+00   0.000e+00   -48.458   -48.996    -0.537     (0)  
Si            1.390e-04
   H2SiO4-2        1.092e-04   2.709e-05    -3.962    -4.567    -0.605     (0)  
   H3SiO4-         2.980e-05   1.990e-05    -4.526    -4.701    -0.176     28.22
   H4SiO4          4.603e-09   5.063e-09    -8.337    -8.296     0.041     52.94

------------------------------Saturation indices-------------------------------

  Phase               SI** log IAP   log K(289 K,   1 atm)

  Al(OH)3(a)       -5.45      5.95   11.40  Al(OH)3
  Albite          -11.36    -29.95  -18.59  NaAlSi3O8
  Alunite         -29.29    -29.55   -0.25  KAl3(SO4)2(OH)6
  Anhydrite        -2.13     -6.30   -4.17  CaSO4
  Anorthite        -8.06    -28.03  -19.98  CaAl2Si2O8
  Aragonite         1.01     -7.28   -8.28  CaCO3
  Arcanite         -2.25     -4.26   -2.01  K2SO4
  Ca-Montmorillonite -21.29    -67.65  -46.36  Ca0.165Al2.33Si3.67O10(OH)2
  Calcite           1.15     -7.28   -8.43  CaCO3
  Chalcedony       -4.62     -8.28   -3.66  SiO2
  Chlorite(14A)     1.44     73.27   71.84  Mg5Al2Si3O10(OH)8
  Chrysotile        1.81     35.16   33.35  Mg3Si2O5(OH)4
  CO2(g)          -12.97    -14.33   -1.35  CO2
  Dolomite         -4.24    -21.19  -16.95  CaMg(CO3)2
  Epsomite        -11.19    -12.98   -1.79  MgSO4:7H2O
  Gibbsite         -2.68      5.95    8.63  Al(OH)3
  Gypsum           -1.80     -6.32   -4.52  CaSO4:2H2O
  H2(g)           -35.17    -38.25   -3.08  H2
  H2O(g)           -1.75     -0.01    1.74  H2O
  Hexahydrite     -11.40    -12.97   -1.58  MgSO4:6H2O
  Illite          -16.04    -57.56  -41.51  K0.6Mg0.25Al2.3Si3.5O10(OH)2
  K-feldspar       -8.29    -29.56  -21.28  KAlSi3O8
  K-mica           -8.07      5.98   14.06  KAl3Si3O10(OH)2
  Kaolinite       -12.90     -4.66    8.24  Al2Si2O5(OH)4
  Kieserite       -11.71    -12.94   -1.24  MgSO4:H2O
  Mirabilite       -3.75     -5.10   -1.35  Na2SO4:10H2O
  O2(g)           -16.14    -18.96   -2.82  O2
  Portlandite       0.37     23.87   23.51  Ca(OH)2
  Quartz           -4.17     -8.28   -4.12  SiO2
  Sepiolite        -6.38      9.62   16.00  Mg2Si3O7.5OH:3H2O
  Sepiolite(d)     -9.04      9.62   18.66  Mg2Si3O7.5OH:3H2O
  SiO2(a)          -5.50     -8.28   -2.79  SiO2
  Talc             -3.86     18.60   22.46  Mg3Si4O10(OH)2
  Thenardite       -5.81     -5.04    0.77  Na2SO4

**For a gas, SI = log10(fugacity). Fugacity = pressure * phi / 1 atm.
  For ideal gases, phi = 1.

-----------------------------------------
Beginning of batch-reaction calculations.
-----------------------------------------

Reaction step 1.

Using solution 0.	
Using kinetics 1.	

Kinetics 1.	

	Time step: 1 seconds

	Rate name       Delta Moles Total Moles   Reactant        Coefficient

	Calcite          -5.434e-14   1.399e-03   Calcite                   1
	Portlandite      -1.467e-11   1.036e+00   Portlandite               1

-----------------------------Solution composition------------------------------

	Elements           Molality       Moles

	C                 5.276e-03   5.276e-03
	Ca                8.737e-04   8.737e-04
	Cl                1.270e-03   1.270e-03
	K                 1.024e-04   1.024e-04
	Mg                3.704e-04   3.704e-04
	Na                4.352e-03   4.352e-03
	S                 5.208e-04   5.208e-04

----------------------------Description of solution----------------------------

                                       pH  =   7.490      Charge balance
                                       pe  =  11.350      Adjusted to redox equilibrium
      Specific Conductance (µS/cm,  16°C)  = 576
                          Density (g/cm³)  =   0.99937
                               Volume (L)  =   1.00119
                        Viscosity (mPa s)  =   1.11069
                        Activity of water  =   1.000
                 Ionic strength (mol/kgw)  =   8.643e-03
                       Mass of water (kg)  =   1.000e+00
                 Total alkalinity (eq/kg)  =   4.919e-03
                       Total CO2 (mol/kg)  =   5.276e-03
                         Temperature (°C)  =  16.00
                  Electrical balance (eq)  =  -2.880e-04
 Percent error, 100*(Cat-|An|)/(Cat+|An|)  =  -2.07
                               Iterations  =  16
                                  Total H  = 1.110173e+02
                                  Total O  = 5.552376e+01

----------------------------Distribution of species----------------------------

                                               Log       Log       Log    mole V
   Species          Molality    Activity  Molality  Activity     Gamma   cm³/mol

   OH-             1.680e-07   1.524e-07    -6.775    -6.817    -0.042     -4.50
   H+              3.521e-08   3.236e-08    -7.453    -7.490    -0.037      0.00
   H2O             5.551e+01   9.998e-01     1.744    -0.000     0.000     18.04
C(-4)         0.000e+00
   CH4             0.000e+00   0.000e+00  -128.517  -128.516     0.001     34.63
C(4)          5.276e-03
   HCO3-           4.872e-03   4.443e-03    -2.312    -2.352    -0.040     23.85
   CO2             3.698e-04   3.703e-04    -3.432    -3.431     0.001     34.37
   MgHCO3+         1.310e-05   1.191e-05    -4.883    -4.924    -0.042      5.22
   NaHCO3          7.821e-06   7.845e-06    -5.107    -5.105     0.001     16.86
   CO3-2           7.600e-06   5.252e-06    -5.119    -5.280    -0.161     -5.42
   CaCO3           4.451e-06   4.460e-06    -5.352    -5.351     0.001    -14.63
   MgCO3           1.029e-06   1.031e-06    -5.987    -5.987     0.001    -17.08
   KHCO3           1.573e-07   1.576e-07    -6.803    -6.803     0.001     20.67
   (CO2)2          1.358e-09   1.360e-09    -8.867    -8.866     0.001     67.90
   CaHCO3+         3.291e-11   3.005e-11   -10.483   -10.522    -0.040      9.32
Ca            8.737e-04
   Ca+2            8.496e-04   5.867e-04    -3.071    -3.232    -0.161    -18.10
   CaSO4           1.970e-05   1.972e-05    -4.706    -4.705     0.000      6.15
   CaCO3           4.451e-06   4.460e-06    -5.352    -5.351     0.001    -14.63
   CaOH+           3.310e-09   3.008e-09    -8.480    -8.522    -0.041     (0)  
   CaHCO3+         3.291e-11   3.005e-11   -10.483   -10.522    -0.040      9.32
   CaHSO4+         6.581e-12   5.982e-12   -11.182   -11.223    -0.041     (0)  
Cl            1.270e-03
   Cl-             1.270e-03   1.153e-03    -2.896    -2.938    -0.042     17.78
   HCl             1.348e-11   1.359e-11   -10.870   -10.867     0.004     19.65
H(0)          0.000e+00
   H2              0.000e+00   0.000e+00   -40.791   -40.790     0.001     14.25
K             1.024e-04
   K+              1.017e-04   9.231e-05    -3.993    -4.035    -0.042      8.73
   KSO4-           4.859e-07   4.447e-07    -6.313    -6.352    -0.038     20.79
   KHCO3           1.573e-07   1.576e-07    -6.803    -6.803     0.001     20.67
Mg            3.704e-04
   Mg+2            3.403e-04   2.363e-04    -3.468    -3.626    -0.158    -21.31
   MgSO4           1.590e-05   1.597e-05    -4.798    -4.797     0.002     -1.28
   MgHCO3+         1.310e-05   1.191e-05    -4.883    -4.924    -0.042      5.22
   MgCO3           1.029e-06   1.031e-06    -5.987    -5.987     0.001    -17.08
   Mg(SO4)2-2      2.898e-08   2.034e-08    -7.538    -7.692    -0.154     34.57
   MgOH+           1.255e-08   1.147e-08    -7.902    -7.941    -0.039     (0)  
Na            4.352e-03
   Na+             4.333e-03   3.944e-03    -2.363    -2.404    -0.041     -1.93
   NaSO4-          1.122e-05   1.020e-05    -4.950    -4.991    -0.041     16.57
   NaHCO3          7.821e-06   7.845e-06    -5.107    -5.105     0.001     16.86
   Na2SO4          7.703e-12   7.716e-12   -11.113   -11.113     0.001     53.02
O(0)          2.697e-14
   O2              1.348e-14   1.351e-14   -13.870   -13.869     0.001     29.61
S(-2)         0.000e+00
   HS-             0.000e+00   0.000e+00  -126.633  -126.675    -0.042     20.15
   H2S             0.000e+00   0.000e+00  -127.097  -127.096     0.001     33.76
   S-2             0.000e+00   0.000e+00  -132.217  -132.379    -0.162     (0)  
   (H2S)2          0.000e+00   0.000e+00  -255.577  -255.576     0.001     30.44
S(6)          5.208e-04
   SO4-2           4.734e-04   3.256e-04    -3.325    -3.487    -0.163     13.11
   CaSO4           1.970e-05   1.972e-05    -4.706    -4.705     0.000      6.15
   MgSO4           1.590e-05   1.597e-05    -4.798    -4.797     0.002     -1.28
   NaSO4-          1.122e-05   1.020e-05    -4.950    -4.991    -0.041     16.57
   KSO4-           4.859e-07   4.447e-07    -6.313    -6.352    -0.038     20.79
   Mg(SO4)2-2      2.898e-08   2.034e-08    -7.538    -7.692    -0.154     34.57
   HSO4-           9.330e-10   8.481e-10    -9.030    -9.072    -0.041     39.60
   Na2SO4          7.703e-12   7.716e-12   -11.113   -11.113     0.001     53.02
   CaHSO4+         6.581e-12   5.982e-12   -11.182   -11.223    -0.041     (0)  

------------------------------Saturation indices-------------------------------

  Phase               SI** log IAP   log K(289 K,   1 atm)

  Anhydrite        -2.55     -6.72   -4.17  CaSO4
  Aragonite        -0.23     -8.51   -8.28  CaCO3
  Arcanite         -9.55    -11.56   -2.01  K2SO4
  Calcite          -0.08     -8.51   -8.43  CaCO3
  CH4(g)         -125.81   -128.52   -2.71  CH4
  CO2(g)           -2.08     -3.43   -1.35  CO2
  Dolomite         -0.47    -17.42  -16.95  CaMg(CO3)2
  Epsomite         -5.32     -7.11   -1.79  MgSO4:7H2O
  Gypsum           -2.20     -6.72   -4.52  CaSO4:2H2O
  H2(g)           -37.71    -40.79   -3.08  H2
  H2O(g)           -1.74     -0.00    1.74  H2O
  H2S(g)         -126.21   -134.17   -7.96  H2S
  Halite           -6.90     -5.34    1.56  NaCl
  Hexahydrite      -5.54     -7.11   -1.58  MgSO4:6H2O
  Kieserite        -5.88     -7.11   -1.24  MgSO4:H2O
  Mirabilite       -6.95     -8.30   -1.35  Na2SO4:10H2O
  O2(g)           -11.05    -13.87   -2.82  O2
  Portlandite     -11.76     11.75   23.51  Ca(OH)2
  Sulfur          -94.51    -89.42    5.10  S
  Sylvite          -7.83     -6.97    0.85  KCl
  Thenardite       -9.06     -8.30    0.77  Na2SO4

**For a gas, SI = log10(fugacity). Fugacity = pressure * phi / 1 atm.
  For ideal gases, phi = 1.

------------------
End of simulation.
------------------

------------------------------------
Reading input data for simulation 3.
------------------------------------

	PRINT						# Going to calculate transport now, please wait...
	TRANSPORT
		cells 2
	 	lengths 0.05
	 	boundary_conditions 1 2
	 	time_step 0.2 y # 1000 yr
	 	shifts 5
	 	print_frequency 10
	 	flow_direction diffusion
	 	multi_d true 1e-9 0.1 1e-4 1
		porosities 2*0.1 
WARNING: Cell-lengths were read for 1 cells. Last value is used till cell 2.
WARNING: No dispersivities were read; disp = 0 assumed.
------------------------------------
Beginning of transport calculations.
------------------------------------

-------------------------------
Equilibrating initial solutions
-------------------------------

Using solution 0.	

-----------------------------Solution composition------------------------------

	Elements           Molality       Moles

	C                 5.276e-03   5.276e-03
	Ca                8.737e-04   8.737e-04
	Cl                1.270e-03   1.270e-03
	K                 1.024e-04   1.024e-04
	Mg                3.704e-04   3.704e-04
	Na                4.352e-03   4.352e-03
	S                 5.208e-04   5.208e-04

----------------------------Description of solution----------------------------

                                       pH  =   7.490      Charge balance
                                       pe  =  11.151      Adjusted to redox equilibrium
      Specific Conductance (µS/cm,  16°C)  = 576
                          Density (g/cm³)  =   0.99937
                               Volume (L)  =   1.00119
                        Viscosity (mPa s)  =   1.11069
                        Activity of water  =   1.000
                 Ionic strength (mol/kgw)  =   8.643e-03
                       Mass of water (kg)  =   1.000e+00
                 Total alkalinity (eq/kg)  =   4.919e-03
                       Total CO2 (mol/kg)  =   5.276e-03
                         Temperature (°C)  =  16.00
                  Electrical balance (eq)  =  -2.880e-04
 Percent error, 100*(Cat-|An|)/(Cat+|An|)  =  -2.07
                               Iterations  =  15
                                  Total H  = 1.110173e+02
                                  Total O  = 5.552376e+01

----------------------------Distribution of species----------------------------

                                               Log       Log       Log    mole V
   Species          Molality    Activity  Molality  Activity     Gamma   cm³/mol

   OH-             1.680e-07   1.524e-07    -6.775    -6.817    -0.042     -4.50
   H+              3.521e-08   3.236e-08    -7.453    -7.490    -0.037      0.00
   H2O             5.551e+01   9.998e-01     1.744    -0.000     0.000     18.04
C(-4)         0.000e+00
   CH4             0.000e+00   0.000e+00  -126.927  -126.926     0.001     34.63
C(4)          5.276e-03
   HCO3-           4.872e-03   4.443e-03    -2.312    -2.352    -0.040     23.85
   CO2             3.698e-04   3.703e-04    -3.432    -3.431     0.001     34.37
   MgHCO3+         1.310e-05   1.191e-05    -4.883    -4.924    -0.042      5.22
   NaHCO3          7.821e-06   7.845e-06    -5.107    -5.105     0.001     16.86
   CO3-2           7.600e-06   5.252e-06    -5.119    -5.280    -0.161     -5.42
   CaCO3           4.451e-06   4.460e-06    -5.352    -5.351     0.001    -14.63
   MgCO3           1.029e-06   1.031e-06    -5.987    -5.987     0.001    -17.08
   KHCO3           1.573e-07   1.576e-07    -6.803    -6.803     0.001     20.67
   (CO2)2          1.358e-09   1.360e-09    -8.867    -8.866     0.001     67.90
   CaHCO3+         3.291e-11   3.005e-11   -10.483   -10.522    -0.040      9.32
Ca            8.737e-04
   Ca+2            8.496e-04   5.867e-04    -3.071    -3.232    -0.161    -18.10
   CaSO4           1.970e-05   1.972e-05    -4.706    -4.705     0.000      6.15
   CaCO3           4.451e-06   4.460e-06    -5.352    -5.351     0.001    -14.63
   CaOH+           3.310e-09   3.008e-09    -8.480    -8.522    -0.041     (0)  
   CaHCO3+         3.291e-11   3.005e-11   -10.483   -10.522    -0.040      9.32
   CaHSO4+         6.581e-12   5.982e-12   -11.182   -11.223    -0.041     (0)  
Cl            1.270e-03
   Cl-             1.270e-03   1.153e-03    -2.896    -2.938    -0.042     17.78
   HCl             1.348e-11   1.359e-11   -10.870   -10.867     0.004     19.65
H(0)          0.000e+00
   H2              0.000e+00   0.000e+00   -40.393   -40.392     0.001     14.25
K             1.024e-04
   K+              1.017e-04   9.231e-05    -3.993    -4.035    -0.042      8.73
   KSO4-           4.859e-07   4.447e-07    -6.313    -6.352    -0.038     20.79
   KHCO3           1.573e-07   1.576e-07    -6.803    -6.803     0.001     20.67
Mg            3.704e-04
   Mg+2            3.403e-04   2.363e-04    -3.468    -3.626    -0.158    -21.31
   MgSO4           1.590e-05   1.597e-05    -4.798    -4.797     0.002     -1.28
   MgHCO3+         1.310e-05   1.191e-05    -4.883    -4.924    -0.042      5.22
   MgCO3           1.029e-06   1.031e-06    -5.987    -5.987     0.001    -17.08
   Mg(SO4)2-2      2.898e-08   2.034e-08    -7.538    -7.692    -0.154     34.57
   MgOH+           1.255e-08   1.147e-08    -7.902    -7.941    -0.039     (0)  
Na            4.352e-03
   Na+             4.333e-03   3.944e-03    -2.363    -2.404    -0.041     -1.93
   NaSO4-          1.122e-05   1.020e-05    -4.950    -4.991    -0.041     16.57
   NaHCO3          7.821e-06   7.845e-06    -5.107    -5.105     0.001     16.86
   Na2SO4          7.703e-12   7.716e-12   -11.113   -11.113     0.001     53.02
O(0)          4.322e-15
   O2              2.161e-15   2.165e-15   -14.665   -14.665     0.001     29.61
S(-2)         0.000e+00
   HS-             0.000e+00   0.000e+00  -125.043  -125.085    -0.042     20.15
   H2S             0.000e+00   0.000e+00  -125.507  -125.506     0.001     33.76
   S-2             0.000e+00   0.000e+00  -130.627  -130.789    -0.162     (0)  
   (H2S)2          0.000e+00   0.000e+00  -252.396  -252.395     0.001     30.44
S(6)          5.208e-04
   SO4-2           4.734e-04   3.256e-04    -3.325    -3.487    -0.163     13.11
   CaSO4           1.970e-05   1.972e-05    -4.706    -4.705     0.000      6.15
   MgSO4           1.590e-05   1.597e-05    -4.798    -4.797     0.002     -1.28
   NaSO4-          1.122e-05   1.020e-05    -4.950    -4.991    -0.041     16.57
   KSO4-           4.859e-07   4.447e-07    -6.313    -6.352    -0.038     20.79
   Mg(SO4)2-2      2.898e-08   2.034e-08    -7.538    -7.692    -0.154     34.57
   HSO4-           9.330e-10   8.481e-10    -9.030    -9.072    -0.041     39.60
   Na2SO4          7.703e-12   7.716e-12   -11.113   -11.113     0.001     53.02
   CaHSO4+         6.581e-12   5.982e-12   -11.182   -11.223    -0.041     (0)  

------------------------------Saturation indices-------------------------------

  Phase               SI** log IAP   log K(289 K,   1 atm)

  Anhydrite        -2.55     -6.72   -4.17  CaSO4
  Aragonite        -0.23     -8.51   -8.28  CaCO3
  Arcanite         -9.55    -11.56   -2.01  K2SO4
  Calcite          -0.08     -8.51   -8.43  CaCO3
  CH4(g)         -124.22   -126.93   -2.71  CH4
  CO2(g)           -2.08     -3.43   -1.35  CO2
  Dolomite         -0.47    -17.42  -16.95  CaMg(CO3)2
  Epsomite         -5.32     -7.11   -1.79  MgSO4:7H2O
  Gypsum           -2.20     -6.72   -4.52  CaSO4:2H2O
  H2(g)           -37.31    -40.39   -3.08  H2
  H2O(g)           -1.74     -0.00    1.74  H2O
  H2S(g)         -124.62   -132.58   -7.96  H2S
  Halite           -6.90     -5.34    1.56  NaCl
  Hexahydrite      -5.54     -7.11   -1.58  MgSO4:6H2O
  Kieserite        -5.88     -7.11   -1.24  MgSO4:H2O
  Mirabilite       -6.95     -8.30   -1.35  Na2SO4:10H2O
  O2(g)           -11.84    -14.66   -2.82  O2
  Portlandite     -11.76     11.75   23.51  Ca(OH)2
  Sulfur          -93.32    -88.22    5.10  S
  Sylvite          -7.83     -6.97    0.85  KCl
  Thenardite       -9.06     -8.30    0.77  Na2SO4

**For a gas, SI = log10(fugacity). Fugacity = pressure * phi / 1 atm.
  For ideal gases, phi = 1.

Using solution 1.	
Using kinetics 1.	

Kinetics 1.	

	Time:      0 seconds
	Time step: 6.31152e+06 seconds

	Rate name       Delta Moles Total Moles   Reactant        Coefficient

	Calcite           0.000e+00   1.399e-03   Calcite                   1
	Portlandite       0.000e+00   1.036e+00   Portlandite               1

-----------------------------Solution composition------------------------------

	Elements           Molality       Moles

	C                 1.426e-02   1.426e-02
	Ca                5.006e-05   5.006e-05
	Cl                7.009e-04   7.009e-04
	K                 2.003e-04   2.003e-04
	Mg                6.008e-05   6.008e-05
	Na                1.562e-02   1.562e-02
	S                 2.003e-05   2.003e-05
	Si                1.001e-04   1.001e-04

----------------------------Description of solution----------------------------

                                       pH  =   8.500      Charge balance
                                       pe  =  10.234      Adjusted to redox equilibrium
      Specific Conductance (µS/cm,  16°C)  = 1102
                          Density (g/cm³)  =   0.99989
                               Volume (L)  =   1.00138
                        Viscosity (mPa s)  =   1.11249
                        Activity of water  =   0.999
                 Ionic strength (mol/kgw)  =   1.585e-02
                       Mass of water (kg)  =   1.000e+00
                 Total alkalinity (eq/kg)  =   1.442e-02
                       Total CO2 (mol/kg)  =   1.426e-02
                         Temperature (°C)  =  16.00
                  Electrical balance (eq)  =   8.811e-04
 Percent error, 100*(Cat-|An|)/(Cat+|An|)  =   2.84
                               Iterations  =  10 (25 overall)
                                  Total H  = 1.110267e+02
                                  Total O  = 5.554939e+01

----------------------------Distribution of species----------------------------

                                               Log       Log       Log    mole V
   Species          Molality    Activity  Molality  Activity     Gamma   cm³/mol

   OH-             1.771e-06   1.559e-06    -5.752    -5.807    -0.055     -4.46
   H+              3.517e-09   3.162e-09    -8.454    -8.500    -0.046      0.00
   H2O             5.551e+01   9.995e-01     1.744    -0.000     0.000     18.04
C(-4)         0.000e+00
   CH4             0.000e+00   0.000e+00  -128.234  -128.232     0.002     34.63
C(4)          1.426e-02
   HCO3-           1.383e-02   1.228e-02    -1.859    -1.911    -0.052     23.93
   CO3-2           2.393e-04   1.486e-04    -3.621    -3.828    -0.207     -5.27
   CO2             9.984e-05   1.001e-04    -4.001    -4.000     0.001     34.37
   NaHCO3          7.526e-05   7.568e-05    -4.123    -4.121     0.002     16.86
   CaCO3           5.872e-06   5.893e-06    -5.231    -5.230     0.002    -14.63
   MgHCO3+         5.043e-06   4.450e-06    -5.297    -5.352    -0.054      5.25
   MgCO3           3.931e-06   3.945e-06    -5.405    -5.404     0.002    -17.08
   KHCO3           8.259e-07   8.290e-07    -6.083    -6.081     0.002     20.67
   (CO2)2          9.911e-11   9.935e-11   -10.004   -10.003     0.001     67.90
   CaHCO3+         4.361e-12   3.880e-12   -11.360   -11.411    -0.051      9.34
Ca            5.006e-05
   Ca+2            4.416e-05   2.740e-05    -4.355    -4.562    -0.207    -18.02
   CaCO3           5.872e-06   5.893e-06    -5.231    -5.230     0.002    -14.63
   CaSO4           3.213e-08   3.219e-08    -7.493    -7.492     0.001      6.15
   CaOH+           1.627e-09   1.437e-09    -8.789    -8.842    -0.054     (0)  
   CaHCO3+         4.361e-12   3.880e-12   -11.360   -11.411    -0.051      9.34
   CaHSO4+         1.080e-15   9.543e-16   -14.967   -15.020    -0.054     (0)  
Cl            7.009e-04
   Cl-             7.009e-04   6.179e-04    -3.154    -3.209    -0.055     17.81
   HCl             7.008e-13   7.117e-13   -12.154   -12.148     0.007     19.65
H(0)          0.000e+00
   H2              0.000e+00   0.000e+00   -40.579   -40.577     0.002     14.25
K             2.003e-04
   K+              1.994e-04   1.757e-04    -3.700    -3.755    -0.055      8.75
   KHCO3           8.259e-07   8.290e-07    -6.083    -6.081     0.002     20.67
   KSO4-           3.309e-08   2.958e-08    -7.480    -7.529    -0.049     21.74
Mg            6.008e-05
   Mg+2            5.101e-05   3.195e-05    -4.292    -4.496    -0.203    -21.22
   MgHCO3+         5.043e-06   4.450e-06    -5.297    -5.352    -0.054      5.25
   MgCO3           3.931e-06   3.945e-06    -5.405    -5.404     0.002    -17.08
   MgSO4           7.491e-08   7.546e-08    -7.125    -7.122     0.003     -1.28
   MgOH+           1.779e-08   1.586e-08    -7.750    -7.800    -0.050     (0)  
   Mg(SO4)2-2      5.273e-12   3.360e-12   -11.278   -11.474    -0.196     35.69
Na            1.562e-02
   Na+             1.554e-02   1.376e-02    -1.808    -1.861    -0.053     -1.88
   NaHCO3          7.526e-05   7.568e-05    -4.123    -4.121     0.002     16.86
   NaSO4-          1.408e-06   1.244e-06    -5.851    -5.905    -0.054     16.75
   Na2SO4          3.273e-12   3.284e-12   -11.485   -11.484     0.001     53.02
O(0)          1.009e-14
   O2              5.044e-15   5.062e-15   -14.297   -14.296     0.002     29.61
S(-2)         0.000e+00
   HS-             0.000e+00   0.000e+00  -128.234  -128.289    -0.055     20.18
   H2S             0.000e+00   0.000e+00  -129.722  -129.720     0.002     33.76
   S-2             0.000e+00   0.000e+00  -132.774  -132.983    -0.210     (0)  
   (H2S)2          0.000e+00   0.000e+00  -260.825  -260.824     0.002     30.44
S(6)          2.003e-05
   SO4-2           1.848e-05   1.138e-05    -4.733    -4.944    -0.210     13.18
   NaSO4-          1.408e-06   1.244e-06    -5.851    -5.905    -0.054     16.75
   MgSO4           7.491e-08   7.546e-08    -7.125    -7.122     0.003     -1.28
   KSO4-           3.309e-08   2.958e-08    -7.480    -7.529    -0.049     21.74
   CaSO4           3.213e-08   3.219e-08    -7.493    -7.492     0.001      6.15
   Mg(SO4)2-2      5.273e-12   3.360e-12   -11.278   -11.474    -0.196     35.69
   HSO4-           3.279e-12   2.897e-12   -11.484   -11.538    -0.054     39.63
   Na2SO4          3.273e-12   3.284e-12   -11.485   -11.484     0.001     53.02
   CaHSO4+         1.080e-15   9.543e-16   -14.967   -15.020    -0.054     (0)  
Si            1.001e-04
   H4SiO4          9.646e-05   9.681e-05    -4.016    -4.014     0.002     52.94
   H3SiO4-         3.670e-06   3.238e-06    -5.435    -5.490    -0.054     27.77
   H2SiO4-2        6.045e-11   3.753e-11   -10.219   -10.426    -0.207     (0)  

------------------------------Saturation indices-------------------------------

  Phase               SI** log IAP   log K(289 K,   1 atm)

  Anhydrite        -5.33     -9.51   -4.17  CaSO4
  Aragonite        -0.11     -8.39   -8.28  CaCO3
  Arcanite        -10.45    -12.45   -2.01  K2SO4
  Calcite           0.04     -8.39   -8.43  CaCO3
  CH4(g)         -125.52   -128.23   -2.71  CH4
  Chalcedony       -0.35     -4.01   -3.66  SiO2
  Chrysotile       -3.86     29.49   33.35  Mg3Si2O5(OH)4
  CO2(g)           -2.64     -4.00   -1.35  CO2
  Dolomite          0.23    -16.71  -16.95  CaMg(CO3)2
  Epsomite         -7.65     -9.44   -1.79  MgSO4:7H2O
  Gypsum           -4.99     -9.51   -4.52  CaSO4:2H2O
  H2(g)           -37.50    -40.58   -3.08  H2
  H2O(g)           -1.74     -0.00    1.74  H2O
  H2S(g)         -128.83   -136.79   -7.96  H2S
  Halite           -6.63     -5.07    1.56  NaCl
  Hexahydrite      -7.86     -9.44   -1.58  MgSO4:6H2O
  Kieserite        -8.20     -9.44   -1.24  MgSO4:H2O
  Mirabilite       -7.32     -8.67   -1.35  Na2SO4:10H2O
  O2(g)           -11.47    -14.30   -2.82  O2
  Portlandite     -11.07     12.44   23.51  Ca(OH)2
  Quartz            0.10     -4.01   -4.12  SiO2
  Sepiolite        -3.04     12.97   16.00  Mg2Si3O7.5OH:3H2O
  Sepiolite(d)     -5.69     12.97   18.66  Mg2Si3O7.5OH:3H2O
  SiO2(a)          -1.23     -4.01   -2.79  SiO2
  Sulfur          -97.35    -92.25    5.10  S
  Sylvite          -7.82     -6.96    0.85  KCl
  Talc             -1.00     21.46   22.46  Mg3Si4O10(OH)2
  Thenardite       -9.44     -8.67    0.77  Na2SO4

**For a gas, SI = log10(fugacity). Fugacity = pressure * phi / 1 atm.
  For ideal gases, phi = 1.

Using solution 2.	
Using kinetics 2.	

Kinetics 2.	

	Time:      0 seconds
	Time step: 6.31152e+06 seconds

	Rate name       Delta Moles Total Moles   Reactant        Coefficient

	Calcite           0.000e+00   1.399e-03   Calcite                   1
	Portlandite       0.000e+00   1.036e+00   Portlandite               1

-----------------------------Solution composition------------------------------

	Elements           Molality       Moles

	Al                1.116e-04   1.116e-04
	C                 4.512e-04   4.512e-04
	Ca                6.766e-03   6.766e-03
	K                 3.789e-01   3.789e-01
	Mg                1.065e-08   1.065e-08
	Na                1.405e-01   1.405e-01
	S                 8.847e-03   8.847e-03
	Si                1.390e-04   1.390e-04

----------------------------Description of solution----------------------------

                                       pH  =  13.570      Charge balance
                                       pe  =   4.000      Adjusted to redox equilibrium
      Specific Conductance (µS/cm,  16°C)  = 60259
                          Density (g/cm³)  =   1.02044
                               Volume (L)  =   1.00351
                        Viscosity (mPa s)  =   1.14262
                        Activity of water  =   0.986
                 Ionic strength (mol/kgw)  =   4.138e-01
                       Mass of water (kg)  =   1.000e+00
                 Total alkalinity (eq/kg)  =   2.838e-01
                       Total CO2 (mol/kg)  =   4.512e-04
                         Temperature (°C)  =  16.00
                  Electrical balance (eq)  =   2.318e-01
 Percent error, 100*(Cat-|An|)/(Cat+|An|)  =  28.46
                               Iterations  =   0 (25 overall)
                                  Total H  = 1.112954e+02
                                  Total O  = 5.582612e+01

----------------------------Distribution of species----------------------------

                                               Log       Log       Log    mole V
   Species          Molality    Activity  Molality  Activity     Gamma   cm³/mol

   OH-             2.775e-01   1.808e-01    -0.557    -0.743    -0.186     -3.58
   H+              3.481e-14   2.692e-14   -13.458   -13.570    -0.112      0.00
   H2O             5.551e+01   9.863e-01     1.744    -0.006     0.000     18.04
Al            1.116e-04
   Al(OH)4-        1.116e-04   7.614e-05    -3.952    -4.118    -0.166     (0)  
   Al(OH)3         1.106e-12   1.217e-12   -11.956   -11.915     0.041     (0)  
   Al(OH)2+        6.457e-19   4.558e-19   -18.190   -18.341    -0.151     (0)  
   AlOH+2          1.466e-26   3.637e-27   -25.834   -26.439    -0.605    -26.49
   Al+3            1.838e-34   1.815e-35   -33.736   -34.741    -1.005    -40.01
   AlSO4+          6.642e-35   4.531e-35   -34.178   -34.344    -0.166     (0)  
   Al(SO4)2-       1.791e-36   1.222e-36   -35.747   -35.913    -0.166     (0)  
   AlHSO4+2        0.000e+00   0.000e+00   -48.458   -48.996    -0.537     (0)  
C(-4)         0.000e+00
   CH4             0.000e+00   0.000e+00  -129.283  -129.242     0.041     34.63
C(4)          4.512e-04
   CO3-2           3.817e-04   9.471e-05    -3.418    -4.024    -0.605     -2.64
   CaCO3           6.944e-05   7.638e-05    -4.158    -4.117     0.041    -14.63
   HCO3-           9.372e-08   6.664e-08    -7.028    -7.176    -0.148     26.05
   KHCO3           5.768e-09   6.345e-09    -8.239    -8.198     0.041     20.67
   NaHCO3          2.612e-09   3.016e-09    -8.583    -8.521     0.062     16.86
   MgCO3           9.254e-12   1.018e-11   -11.034   -10.992     0.041    -17.08
   CO2             4.398e-15   4.683e-15   -14.357   -14.329     0.027     34.37
   CaHCO3+         5.948e-16   4.281e-16   -15.226   -15.368    -0.143      9.51
   MgHCO3+         1.464e-16   9.773e-17   -15.834   -16.010    -0.176      5.45
   (CO2)2          2.043e-31   2.176e-31   -30.690   -30.662     0.027     67.90
Ca            6.766e-03
   CaOH+           4.616e-03   3.388e-03    -2.336    -2.470    -0.134     (0)  
   Ca+2            2.031e-03   5.572e-04    -2.692    -3.254    -0.562    -17.17
   CaCO3           6.944e-05   7.638e-05    -4.158    -4.117     0.041    -14.63
   CaSO4           4.908e-05   5.120e-05    -4.309    -4.291     0.018      6.15
   CaHCO3+         5.948e-16   4.281e-16   -15.226   -15.368    -0.143      9.51
   CaHSO4+         1.761e-17   1.292e-17   -16.754   -16.889    -0.134     (0)  
H(0)          1.018e-38
   H2              5.090e-39   5.625e-39   -38.293   -38.250     0.043     14.25
K             3.789e-01
   K+              3.750e-01   2.478e-01    -0.426    -0.606    -0.180      9.17
   KSO4-           3.860e-03   3.265e-03    -2.413    -2.486    -0.073     32.42
   KHCO3           5.768e-09   6.345e-09    -8.239    -8.198     0.041     20.67
Mg            1.065e-08
   MgOH+           1.019e-08   7.443e-09    -7.992    -8.128    -0.137     (0)  
   Mg+2            4.249e-10   1.293e-10    -9.372    -9.888    -0.517    -20.39
   MgSO4           1.975e-11   2.390e-11   -10.704   -10.622     0.083     -1.28
   MgCO3           9.254e-12   1.018e-11   -11.034   -10.992     0.041    -17.08
   Mg(SO4)2-2      2.654e-13   8.325e-14   -12.576   -13.080    -0.503     43.27
   MgHCO3+         1.464e-16   9.773e-17   -15.834   -16.010    -0.176      5.45
Na            1.405e-01
   Na+             1.395e-01   1.011e-01    -0.855    -0.995    -0.140     -1.19
   NaSO4-          9.912e-04   7.151e-04    -3.004    -3.146    -0.142     19.94
   Na2SO4          1.274e-08   1.386e-08    -7.895    -7.858     0.037     53.02
   NaHCO3          2.612e-09   3.016e-09    -8.583    -8.521     0.062     16.86
O(0)          1.987e-19
   O2              9.935e-20   1.093e-19   -19.003   -18.961     0.041     29.61
S(-2)         0.000e+00
   S-2             0.000e+00   0.000e+00  -121.128  -121.758    -0.630     (0)  
   HS-             0.000e+00   0.000e+00  -121.948  -122.134    -0.186     20.63
   H2S             0.000e+00   0.000e+00  -128.676  -128.635     0.041     33.76
   (H2S)2          0.000e+00   0.000e+00  -258.695  -258.653     0.041     30.44
S(6)          8.847e-03
   SO4-2           3.947e-03   8.904e-04    -2.404    -3.050    -0.647     14.80
   KSO4-           3.860e-03   3.265e-03    -2.413    -2.486    -0.073     32.42
   NaSO4-          9.912e-04   7.151e-04    -3.004    -3.146    -0.142     19.94
   CaSO4           4.908e-05   5.120e-05    -4.309    -4.291     0.018      6.15
   Na2SO4          1.274e-08   1.386e-08    -7.895    -7.858     0.037     53.02
   MgSO4           1.975e-11   2.390e-11   -10.704   -10.622     0.083     -1.28
   Mg(SO4)2-2      2.654e-13   8.325e-14   -12.576   -13.080    -0.503     43.27
   HSO4-           2.628e-15   1.929e-15   -14.580   -14.715    -0.134     40.06
   CaHSO4+         1.761e-17   1.292e-17   -16.754   -16.889    -0.134     (0)  
   AlSO4+          6.642e-35   4.531e-35   -34.178   -34.344    -0.166     (0)  
   Al(SO4)2-       1.791e-36   1.222e-36   -35.747   -35.913    -0.166     (0)  
   AlHSO4+2        0.000e+00   0.000e+00   -48.458   -48.996    -0.537     (0)  
Si            1.390e-04
   H2SiO4-2        1.092e-04   2.709e-05    -3.962    -4.567    -0.605     (0)  
   H3SiO4-         2.980e-05   1.990e-05    -4.526    -4.701    -0.176     28.22
   H4SiO4          4.603e-09   5.063e-09    -8.337    -8.296     0.041     52.94

------------------------------Saturation indices-------------------------------

  Phase               SI** log IAP   log K(289 K,   1 atm)

  Al(OH)3(a)       -5.45      5.95   11.40  Al(OH)3
  Albite          -11.36    -29.95  -18.59  NaAlSi3O8
  Alunite         -29.29    -29.55   -0.25  KAl3(SO4)2(OH)6
  Anhydrite        -2.13     -6.30   -4.17  CaSO4
  Anorthite        -8.06    -28.03  -19.98  CaAl2Si2O8
  Aragonite         1.01     -7.28   -8.28  CaCO3
  Arcanite         -2.25     -4.26   -2.01  K2SO4
  Ca-Montmorillonite -21.29    -67.65  -46.36  Ca0.165Al2.33Si3.67O10(OH)2
  Calcite           1.15     -7.28   -8.43  CaCO3
  CH4(g)         -126.53   -129.24   -2.71  CH4
  Chalcedony       -4.62     -8.28   -3.66  SiO2
  Chlorite(14A)     1.44     73.27   71.84  Mg5Al2Si3O10(OH)8
  Chrysotile        1.81     35.16   33.35  Mg3Si2O5(OH)4
  CO2(g)          -12.97    -14.33   -1.35  CO2
  Dolomite         -4.24    -21.19  -16.95  CaMg(CO3)2
  Epsomite        -11.19    -12.98   -1.79  MgSO4:7H2O
  Gibbsite         -2.68      5.95    8.63  Al(OH)3
  Gypsum           -1.80     -6.32   -4.52  CaSO4:2H2O
  H2(g)           -35.17    -38.25   -3.08  H2
  H2O(g)           -1.75     -0.01    1.74  H2O
  H2S(g)         -127.75   -135.70   -7.96  H2S
  Hexahydrite     -11.40    -12.97   -1.58  MgSO4:6H2O
  Illite          -16.04    -57.56  -41.51  K0.6Mg0.25Al2.3Si3.5O10(OH)2
  K-feldspar       -8.29    -29.56  -21.28  KAlSi3O8
  K-mica           -8.07      5.98   14.06  KAl3Si3O10(OH)2
  Kaolinite       -12.90     -4.66    8.24  Al2Si2O5(OH)4
  Kieserite       -11.71    -12.94   -1.24  MgSO4:H2O
  Mirabilite       -3.75     -5.10   -1.35  Na2SO4:10H2O
  O2(g)           -16.14    -18.96   -2.82  O2
  Portlandite       0.37     23.87   23.51  Ca(OH)2
  Quartz           -4.17     -8.28   -4.12  SiO2
  Sepiolite        -6.38      9.62   16.00  Mg2Si3O7.5OH:3H2O
  Sepiolite(d)     -9.04      9.62   18.66  Mg2Si3O7.5OH:3H2O
  SiO2(a)          -5.50     -8.28   -2.79  SiO2
  Sulfur          -98.59    -93.50    5.10  S
  Talc             -3.86     18.60   22.46  Mg3Si4O10(OH)2
  Thenardite       -5.81     -5.04    0.77  Na2SO4

**For a gas, SI = log10(fugacity). Fugacity = pressure * phi / 1 atm.
  For ideal gases, phi = 1.


Calculating transport: 2 (mobile) cells, 5 shifts, 10 mixruns...

------------------
End of simulation.
------------------

------------------------------------
Reading input data for simulation 4.
------------------------------------

