WARNING: Database file from DATABASE keyword is used; command line argument ignored.
   Input file: cc_1barCO2
  Output file: cc_1barCO2.out
Database file: ../database/pitzer.dat

------------------
Reading data base.
------------------

WARNING: Unknown input, no keyword has been specified.
	SOLUTION_MASTER_SPECIES
	SOLUTION_SPECIES
	PHASES
	PITZER
	GAS_BINARY_PARAMETERS
	EXCHANGE_MASTER_SPECIES
	EXCHANGE_SPECIES
	SURFACE_MASTER_SPECIES
	SURFACE_SPECIES
	MEAN_GAMMAS
	END
------------------------------------
Reading input data for simulation 1.
------------------------------------

	DATABASE ../database/pitzer.dat
	SELECTED_OUTPUT 101
	    file                 cc_1barCO2_101.sel
	USER_PUNCH 101
	    headings Mu SC
	    start
	10 PUNCH STR_F$(MU, 20, 12)
	20 PUNCH STR_F$(SC, 20, 10)
	    end
	SOLUTION 1
	EQUILIBRIUM_PHASES 1
	Calcite
	CO2(g) -0.006
	REACTION_TEMPERATURE 1
	0 300 in 31
	USER_GRAPH 1 calcite solubility at 1 bar CO2
	-plot_tsv_file cc_1barCO2.dat
	-axis_titles "Temperature / ºC" "Ca / (mmol/kgw)"
	-axis_scale x_axis 0 300
	10 graph_x tc
	20 graph_y tot("Ca") * 1e3
	END
-------------------------------------------
Beginning of initial solution calculations.
-------------------------------------------

Initial solution 1.	

-----------------------------Solution composition------------------------------

	Elements           Molality       Moles

	Pure water     

----------------------------Description of solution----------------------------

                                       pH  =   7.000    
                                       pe  =   4.000    
      Specific Conductance (µS/cm,  25°C)  = 0
                          Density (g/cm³)  =   0.99704
                               Volume (L)  =   1.00297
                        Viscosity (mPa s)  =   0.89002
                        Activity of water  =   1.000
                 Ionic strength (mol/kgw)  =   1.006e-07
                       Mass of water (kg)  =   1.000e+00
                 Total alkalinity (eq/kg)  =   1.216e-09
                         Temperature (°C)  =  25.00
                  Electrical balance (eq)  =  -1.216e-09
 Percent error, 100*(Cat-|An|)/(Cat+|An|)  =  -0.60
                               Iterations  =   3
                         Gamma iterations  =   2
                      Osmotic coefficient  =   0.99988
                         Density of water  =   0.99704
                                  Total H  = 1.110124e+02
                                  Total O  = 5.550622e+01

----------------------------Distribution of species----------------------------

                                                    MacInnes  MacInnes
                                MacInnes       Log       Log       Log    mole V
   Species          Molality    Activity  Molality  Activity     Gamma   cm³/mol

   OH-             1.013e-07   1.012e-07    -6.995    -6.995    -0.000     -4.14
   H+              1.000e-07   1.000e-07    -7.000    -7.000    -0.000      0.00
   H2O             5.551e+01   1.000e+00     1.744    -0.000     0.000     18.07

------------------------------Saturation indices-------------------------------

  Phase               SI** log IAP   log K(298 K,   1 atm)

  H2O(g)           -1.50     -0.00    1.50  H2O

**For a gas, SI = log10(fugacity). Fugacity = pressure * phi / 1 atm.
  For ideal gases, phi = 1.

-----------------------------------------
Beginning of batch-reaction calculations.
-----------------------------------------

Reaction step 1.

Using solution 1.	
Using pure phase assemblage 1.	
Using temperature 1.	

-------------------------------Phase assemblage--------------------------------

                                                      Moles in assemblage
Phase               SI  log IAP  log K(T, P)   Initial       Final       Delta

CO2(g)           -0.01    -1.11     -1.10    1.000e+01   9.909e+00  -9.057e-02
Calcite           0.00    -8.31     -8.31    1.000e+01   9.986e+00  -1.396e-02

-----------------------------Solution composition------------------------------

	Elements           Molality       Moles

	C                 1.045e-01   1.045e-01
	Ca                1.396e-02   1.396e-02

----------------------------Description of solution----------------------------

                                       pH  =   6.059      Charge balance
                                       pe  =   4.000      Adjusted to redox equilibrium
      Specific Conductance (µS/cm,   0°C)  = 1124
                          Density (g/cm³)  =   1.00257
                               Volume (L)  =   1.00281
                        Viscosity (mPa s)  =   1.82525
                        Activity of water  =   0.998
                 Ionic strength (mol/kgw)  =   4.188e-02
                       Mass of water (kg)  =   9.997e-01
                 Total alkalinity (eq/kg)  =   2.792e-02
                       Total CO2 (mol/kg)  =   1.045e-01
                         Temperature (°C)  =   0.00
                  Electrical balance (eq)  =  -1.216e-09
 Percent error, 100*(Cat-|An|)/(Cat+|An|)  =  -0.00
                               Iterations  =  17
                         Gamma iterations  =   3
                      Osmotic coefficient  =   0.97633
                         Density of water  =   0.99984
                                  Total H  = 1.110124e+02
                                  Total O  = 5.572921e+01

----------------------------Distribution of species----------------------------

                                                    MacInnes  MacInnes
                                MacInnes       Log       Log       Log    mole V
   Species          Molality    Activity  Molality  Activity     Gamma   cm³/mol

   H+              1.053e-06   8.721e-07    -5.977    -6.059    -0.082      0.00
   OH-             1.739e-09   1.318e-09    -8.760    -8.880    -0.120     -5.99
   H2O             5.551e+01   9.979e-01     1.744    -0.001     0.000     18.02
C(4)          1.045e-01
   CO2             7.663e-02   7.730e-02    -1.116    -1.112     0.004     33.49
   HCO3-           2.792e-02   2.391e-02    -1.554    -1.621    -0.067     21.26
   CO3-2           1.546e-06   6.295e-07    -5.811    -6.201    -0.390     -8.35
Ca            1.396e-02
   Ca+2            1.396e-02   7.829e-03    -1.855    -2.106    -0.251    -18.51

------------------------------Saturation indices-------------------------------

  Phase               SI** log IAP   log K(273 K,   1 atm)

  Aragonite        -0.21     -8.31   -8.10  CaCO3
  Calcite           0.00     -8.31   -8.31  CaCO3
  CO2(g)           -0.01     -1.11   -1.10  CO2	 Pressure   1.0 atm, phi 0.993
  H2O(g)           -2.21     -0.00    2.21  H2O
  Portlandite     -14.68    -19.87   -5.19  Ca(OH)2

**For a gas, SI = log10(fugacity). Fugacity = pressure * phi / 1 atm.
  For ideal gases, phi = 1.

Reaction step 2.

Using solution 1.	
Using pure phase assemblage 1.	
Using temperature 1.	

-------------------------------Phase assemblage--------------------------------

                                                      Moles in assemblage
Phase               SI  log IAP  log K(T, P)   Initial       Final       Delta

CO2(g)           -0.01    -1.27     -1.26    1.000e+01   9.935e+00  -6.459e-02
Calcite           0.00    -8.35     -8.35    1.000e+01   9.988e+00  -1.161e-02

-----------------------------Solution composition------------------------------

	Elements           Molality       Moles

	C                 7.622e-02   7.620e-02
	Ca                1.162e-02   1.161e-02

----------------------------Description of solution----------------------------

                                       pH  =   6.030      Charge balance
                                       pe  =   4.000      Adjusted to redox equilibrium
      Specific Conductance (µS/cm,  10°C)  = 1320
                          Density (g/cm³)  =   1.00178
                               Volume (L)  =   1.00222
                        Viscosity (mPa s)  =   1.32294
                        Activity of water  =   0.998
                 Ionic strength (mol/kgw)  =   3.485e-02
                       Mass of water (kg)  =   9.998e-01
                 Total alkalinity (eq/kg)  =   2.323e-02
                       Total CO2 (mol/kg)  =   7.622e-02
                         Temperature (°C)  =  10.00
                  Electrical balance (eq)  =  -1.216e-09
 Percent error, 100*(Cat-|An|)/(Cat+|An|)  =  -0.00
                               Iterations  =  17
                         Gamma iterations  =   3
                      Osmotic coefficient  =   0.97159
                         Density of water  =   0.99970
                                  Total H  = 1.110124e+02
                                  Total O  = 5.567023e+01

----------------------------Distribution of species----------------------------

                                                    MacInnes  MacInnes
                                MacInnes       Log       Log       Log    mole V
   Species          Molality    Activity  Molality  Activity     Gamma   cm³/mol

   H+              1.119e-06   9.330e-07    -5.951    -6.030    -0.079      0.00
   OH-             4.050e-09   3.148e-09    -8.393    -8.502    -0.109     -4.85
   H2O             5.551e+01   9.985e-01     1.744    -0.001     0.000     18.02
C(4)          7.622e-02
   CO2             5.298e-02   5.325e-02    -1.276    -1.274     0.002     34.06
   HCO3-           2.323e-02   2.008e-02    -1.634    -1.697    -0.063     23.10
   CO3-2           1.563e-06   6.834e-07    -5.806    -6.165    -0.359     -6.04
Ca            1.162e-02
   Ca+2            1.162e-02   6.563e-03    -1.935    -2.183    -0.248    -18.06

------------------------------Saturation indices-------------------------------

  Phase               SI** log IAP   log K(283 K,   1 atm)

  Aragonite        -0.21     -8.35   -8.14  CaCO3
  Calcite           0.00     -8.35   -8.35  CaCO3
  CO2(g)           -0.01     -1.27   -1.26  CO2	 Pressure   1.0 atm, phi 0.994
  H2O(g)           -1.91     -0.00    1.91  H2O
  Portlandite     -14.00    -19.19   -5.19  Ca(OH)2

**For a gas, SI = log10(fugacity). Fugacity = pressure * phi / 1 atm.
  For ideal gases, phi = 1.

Reaction step 3.

Using solution 1.	
Using pure phase assemblage 1.	
Using temperature 1.	

-------------------------------Phase assemblage--------------------------------

                                                      Moles in assemblage
Phase               SI  log IAP  log K(T, P)   Initial       Final       Delta

CO2(g)           -0.01    -1.41     -1.40    1.000e+01   9.952e+00  -4.826e-02
Calcite           0.00    -8.41     -8.41    1.000e+01   9.990e+00  -9.667e-03

-----------------------------Solution composition------------------------------

	Elements           Molality       Moles

	C                 5.794e-02   5.793e-02
	Ca                9.669e-03   9.667e-03

----------------------------Description of solution----------------------------

                                       pH  =   6.011      Charge balance
                                       pe  =   4.000      Adjusted to redox equilibrium
      Specific Conductance (µS/cm,  20°C)  = 1465
                          Density (g/cm³)  =   0.99984
                               Volume (L)  =   1.00326
                        Viscosity (mPa s)  =   1.01173
                        Activity of water  =   0.999
                 Ionic strength (mol/kgw)  =   2.901e-02
                       Mass of water (kg)  =   9.998e-01
                 Total alkalinity (eq/kg)  =   1.934e-02
                       Total CO2 (mol/kg)  =   5.794e-02
                         Temperature (°C)  =  20.00
                  Electrical balance (eq)  =  -1.216e-09
 Percent error, 100*(Cat-|An|)/(Cat+|An|)  =  -0.00
                               Iterations  =  16
                         Gamma iterations  =   3
                      Osmotic coefficient  =   0.96868
                         Density of water  =   0.99820
                                  Total H  = 1.110124e+02
                                  Total O  = 5.563175e+01

----------------------------Distribution of species----------------------------

                                                    MacInnes  MacInnes
                                MacInnes       Log       Log       Log    mole V
   Species          Molality    Activity  Molality  Activity     Gamma   cm³/mol

   H+              1.161e-06   9.750e-07    -5.935    -6.011    -0.076      0.00
   OH-             8.823e-09   7.013e-09    -8.054    -8.154    -0.100     -4.17
   H2O             5.551e+01   9.988e-01     1.744    -0.001     0.000     18.05
C(4)          5.794e-02
   CO2             3.860e-02   3.872e-02    -1.413    -1.412     0.001     34.56
   HCO3-           1.934e-02   1.686e-02    -1.714    -1.773    -0.059     24.23
   CO3-2           1.525e-06   7.111e-07    -5.817    -6.148    -0.331     -4.67
Ca            9.669e-03
   Ca+2            9.669e-03   5.531e-03    -2.015    -2.257    -0.243    -17.82

------------------------------Saturation indices-------------------------------

  Phase               SI** log IAP   log K(293 K,   1 atm)

  Aragonite        -0.22     -8.41   -8.19  CaCO3
  Calcite           0.00     -8.41   -8.41  CaCO3
  CO2(g)           -0.01     -1.41   -1.40  CO2	 Pressure   1.0 atm, phi 0.994
  H2O(g)           -1.63     -0.00    1.63  H2O
  Portlandite     -13.38    -18.57   -5.19  Ca(OH)2

**For a gas, SI = log10(fugacity). Fugacity = pressure * phi / 1 atm.
  For ideal gases, phi = 1.

Reaction step 4.

Using solution 1.	
Using pure phase assemblage 1.	
Using temperature 1.	

-------------------------------Phase assemblage--------------------------------

                                                      Moles in assemblage
Phase               SI  log IAP  log K(T, P)   Initial       Final       Delta

CO2(g)           -0.01    -1.53     -1.52    1.000e+01   9.963e+00  -3.747e-02
Calcite           0.00    -8.48     -8.48    1.000e+01   9.992e+00  -8.053e-03

-----------------------------Solution composition------------------------------

	Elements           Molality       Moles

	C                 4.553e-02   4.552e-02
	Ca                8.054e-03   8.053e-03

----------------------------Description of solution----------------------------

                                       pH  =   6.000      Charge balance
                                       pe  =   4.000      Adjusted to redox equilibrium
      Specific Conductance (µS/cm,  30°C)  = 1560
                          Density (g/cm³)  =   0.99695
                               Volume (L)  =   1.00552
                        Viscosity (mPa s)  =   0.80391
                        Activity of water  =   0.999
                 Ionic strength (mol/kgw)  =   2.416e-02
                       Mass of water (kg)  =   9.999e-01
                 Total alkalinity (eq/kg)  =   1.611e-02
                       Total CO2 (mol/kg)  =   4.553e-02
                         Temperature (°C)  =  30.00
                  Electrical balance (eq)  =  -1.216e-09
 Percent error, 100*(Cat-|An|)/(Cat+|An|)  =  -0.00
                               Iterations  =  16
                         Gamma iterations  =   3
                      Osmotic coefficient  =   0.96714
                         Density of water  =   0.99564
                                  Total H  = 1.110124e+02
                                  Total O  = 5.560531e+01

----------------------------Distribution of species----------------------------

                                                    MacInnes  MacInnes
                                MacInnes       Log       Log       Log    mole V
   Species          Molality    Activity  Molality  Activity     Gamma   cm³/mol

   H+              1.183e-06   1.001e-06    -5.927    -6.000    -0.073      0.00
   OH-             1.808e-08   1.466e-08    -7.743    -7.834    -0.091     -3.80
   H2O             5.551e+01   9.991e-01     1.744    -0.000     0.000     18.09
C(4)          4.553e-02
   CO2             2.942e-02   2.947e-02    -1.531    -1.531     0.001     35.03
   HCO3-           1.611e-02   1.416e-02    -1.793    -1.849    -0.056     24.91
   CO3-2           1.442e-06   7.120e-07    -5.841    -6.148    -0.306     -3.89
Ca            8.054e-03
   Ca+2            8.054e-03   4.679e-03    -2.094    -2.330    -0.236    -17.73

------------------------------Saturation indices-------------------------------

  Phase               SI** log IAP   log K(303 K,   1 atm)

  Aragonite        -0.22     -8.48   -8.25  CaCO3
  Calcite           0.00     -8.48   -8.48  CaCO3
  CO2(g)           -0.01     -1.53   -1.52  CO2	 Pressure   1.0 atm, phi 0.995
  H2O(g)           -1.38     -0.00    1.38  H2O
  Portlandite     -12.81    -18.00   -5.19  Ca(OH)2

**For a gas, SI = log10(fugacity). Fugacity = pressure * phi / 1 atm.
  For ideal gases, phi = 1.

Reaction step 5.

Using solution 1.	
Using pure phase assemblage 1.	
Using temperature 1.	

-------------------------------Phase assemblage--------------------------------

                                                      Moles in assemblage
Phase               SI  log IAP  log K(T, P)   Initial       Final       Delta

CO2(g)           -0.01    -1.63     -1.62    1.000e+01   9.970e+00  -3.001e-02
Calcite           0.00    -8.56     -8.56    1.000e+01   9.993e+00  -6.713e-03

-----------------------------Solution composition------------------------------

	Elements           Molality       Moles

	C                 3.673e-02   3.673e-02
	Ca                6.714e-03   6.713e-03

----------------------------Description of solution----------------------------

                                       pH  =   5.995      Charge balance
                                       pe  =   4.000      Adjusted to redox equilibrium
      Specific Conductance (µS/cm,  40°C)  = 1611
                          Density (g/cm³)  =   0.99328
                               Volume (L)  =   1.00878
                        Viscosity (mPa s)  =   0.65744
                        Activity of water  =   0.999
                 Ionic strength (mol/kgw)  =   2.014e-02
                       Mass of water (kg)  =   9.999e-01
                 Total alkalinity (eq/kg)  =   1.343e-02
                       Total CO2 (mol/kg)  =   3.673e-02
                         Temperature (°C)  =  40.00
                  Electrical balance (eq)  =  -1.216e-09
 Percent error, 100*(Cat-|An|)/(Cat+|An|)  =  -0.00
                               Iterations  =  15
                         Gamma iterations  =   3
                      Osmotic coefficient  =   0.96666
                         Density of water  =   0.99221
                                  Total H  = 1.110124e+02
                                  Total O  = 5.558639e+01

----------------------------Distribution of species----------------------------

                                                    MacInnes  MacInnes
                                MacInnes       Log       Log       Log    mole V
   Species          Molality    Activity  Molality  Activity     Gamma   cm³/mol

   H+              1.188e-06   1.012e-06    -5.925    -5.995    -0.070      0.00
   OH-             3.501e-08   2.890e-08    -7.456    -7.539    -0.083     -3.65
   H2O             5.551e+01   9.992e-01     1.744    -0.000     0.000     18.16
C(4)          3.673e-02
   CO2             2.330e-02   2.333e-02    -1.633    -1.632     0.000     35.49
   HCO3-           1.343e-02   1.189e-02    -1.872    -1.925    -0.053     25.31
   CO3-2           1.323e-06   6.882e-07    -5.878    -6.162    -0.284     -3.54
Ca            6.714e-03
   Ca+2            6.714e-03   3.968e-03    -2.173    -2.401    -0.228    -17.74

------------------------------Saturation indices-------------------------------

  Phase               SI** log IAP   log K(313 K,   1 atm)

  Aragonite        -0.23     -8.56   -8.33  CaCO3
  Calcite           0.00     -8.56   -8.56  CaCO3
  CO2(g)           -0.01     -1.63   -1.62  CO2	 Pressure   1.0 atm, phi 0.995
  H2O(g)           -1.14     -0.00    1.14  H2O
  Portlandite     -12.29    -17.48   -5.19  Ca(OH)2

**For a gas, SI = log10(fugacity). Fugacity = pressure * phi / 1 atm.
  For ideal gases, phi = 1.

Reaction step 6.

Using solution 1.	
Using pure phase assemblage 1.	
Using temperature 1.	

-------------------------------Phase assemblage--------------------------------

                                                      Moles in assemblage
Phase               SI  log IAP  log K(T, P)   Initial       Final       Delta

CO2(g)           -0.01    -1.72     -1.71    1.000e+01   9.975e+00  -2.469e-02
Calcite          -0.00    -8.66     -8.66    1.000e+01   9.994e+00  -5.601e-03

-----------------------------Solution composition------------------------------

	Elements           Molality       Moles

	C                 3.029e-02   3.029e-02
	Ca                5.602e-03   5.601e-03

----------------------------Description of solution----------------------------

                                       pH  =   5.994      Charge balance
                                       pe  =   4.000      Adjusted to redox equilibrium
      Specific Conductance (µS/cm,  50°C)  = 1623
                          Density (g/cm³)  =   0.98890
                               Volume (L)  =   1.01289
                        Viscosity (mPa s)  =   0.54999
                        Activity of water  =   0.999
                 Ionic strength (mol/kgw)  =   1.681e-02
                       Mass of water (kg)  =   9.999e-01
                 Total alkalinity (eq/kg)  =   1.120e-02
                       Total CO2 (mol/kg)  =   3.029e-02
                         Temperature (°C)  =  50.00
                  Electrical balance (eq)  =  -1.216e-09
 Percent error, 100*(Cat-|An|)/(Cat+|An|)  =  -0.00
                               Iterations  =  15
                         Gamma iterations  =   3
                      Osmotic coefficient  =   0.96701
                         Density of water  =   0.98803
                                  Total H  = 1.110124e+02
                                  Total O  = 5.557240e+01

----------------------------Distribution of species----------------------------

                                                    MacInnes  MacInnes
                                MacInnes       Log       Log       Log    mole V
   Species          Molality    Activity  Molality  Activity     Gamma   cm³/mol

   H+              1.181e-06   1.014e-06    -5.928    -5.994    -0.067      0.00
   OH-             6.434e-08   5.397e-08    -7.191    -7.268    -0.076     -3.66
   H2O             5.551e+01   9.994e-01     1.744    -0.000     0.000     18.23
C(4)          3.029e-02
   CO2             1.909e-02   1.910e-02    -1.719    -1.719     0.000     35.97
   HCO3-           1.120e-02   9.988e-03    -1.951    -2.001    -0.050     25.48
   CO3-2           1.182e-06   6.439e-07    -5.927    -6.191    -0.264     -3.51
Ca            5.602e-03
   Ca+2            5.602e-03   3.373e-03    -2.252    -2.472    -0.220    -17.84

------------------------------Saturation indices-------------------------------

  Phase               SI** log IAP   log K(323 K,   1 atm)

  Aragonite        -0.24     -8.66   -8.42  CaCO3
  Calcite          -0.00     -8.66   -8.66  CaCO3
  CO2(g)           -0.01     -1.72   -1.71  CO2	 Pressure   1.0 atm, phi 0.996
  H2O(g)           -0.92     -0.00    0.92  H2O
  Portlandite     -11.82    -17.01   -5.19  Ca(OH)2

**For a gas, SI = log10(fugacity). Fugacity = pressure * phi / 1 atm.
  For ideal gases, phi = 1.

Reaction step 7.

Using solution 1.	
Using pure phase assemblage 1.	
Using temperature 1.	

-------------------------------Phase assemblage--------------------------------

                                                      Moles in assemblage
Phase               SI  log IAP  log K(T, P)   Initial       Final       Delta

CO2(g)           -0.01    -1.79     -1.79    1.000e+01   9.979e+00  -2.077e-02
Calcite          -0.00    -8.78     -8.78    1.000e+01   9.995e+00  -4.677e-03

-----------------------------Solution composition------------------------------

	Elements           Molality       Moles

	C                 2.545e-02   2.545e-02
	Ca                4.678e-03   4.677e-03

----------------------------Description of solution----------------------------

                                       pH  =   5.997      Charge balance
                                       pe  =   4.000      Adjusted to redox equilibrium
      Specific Conductance (µS/cm,  60°C)  = 1602
                          Density (g/cm³)  =   0.98391
                               Volume (L)  =   1.01775
                        Viscosity (mPa s)  =   0.46868
                        Activity of water  =   0.999
                 Ionic strength (mol/kgw)  =   1.403e-02
                       Mass of water (kg)  =   9.999e-01
                 Total alkalinity (eq/kg)  =   9.355e-03
                       Total CO2 (mol/kg)  =   2.545e-02
                         Temperature (°C)  =  60.00
                  Electrical balance (eq)  =  -1.216e-09
 Percent error, 100*(Cat-|An|)/(Cat+|An|)  =  -0.00
                               Iterations  =  15
                         Gamma iterations  =   3
                      Osmotic coefficient  =   0.96801
                         Density of water  =   0.98319
                                  Total H  = 1.110124e+02
                                  Total O  = 5.556179e+01

----------------------------Distribution of species----------------------------

                                                    MacInnes  MacInnes
                                MacInnes       Log       Log       Log    mole V
   Species          Molality    Activity  Molality  Activity     Gamma   cm³/mol

   H+              1.165e-06   1.006e-06    -5.934    -5.997    -0.064      0.00
   OH-             1.127e-07   9.587e-08    -6.948    -7.018    -0.070     -3.82
   H2O             5.551e+01   9.995e-01     1.744    -0.000     0.000     18.32
C(4)          2.545e-02
   CO2             1.610e-02   1.610e-02    -1.793    -1.793     0.000     36.49
   HCO3-           9.354e-03   8.393e-03    -2.029    -2.076    -0.047     25.49
   CO3-2           1.029e-06   5.846e-07    -5.988    -6.233    -0.245     -3.76
Ca            4.678e-03
   Ca+2            4.678e-03   2.870e-03    -2.330    -2.542    -0.212    -18.01

------------------------------Saturation indices-------------------------------

  Phase               SI** log IAP   log K(333 K,   1 atm)

  Aragonite        -0.25     -8.78   -8.52  CaCO3
  Calcite          -0.00     -8.78   -8.78  CaCO3
  CO2(g)           -0.01     -1.79   -1.79  CO2	 Pressure   1.0 atm, phi 0.996
  H2O(g)           -0.71     -0.00    0.71  H2O
  Portlandite     -11.39    -16.58   -5.19  Ca(OH)2

**For a gas, SI = log10(fugacity). Fugacity = pressure * phi / 1 atm.
  For ideal gases, phi = 1.

Reaction step 8.

Using solution 1.	
Using pure phase assemblage 1.	
Using temperature 1.	

-------------------------------Phase assemblage--------------------------------

                                                      Moles in assemblage
Phase               SI  log IAP  log K(T, P)   Initial       Final       Delta

CO2(g)           -0.01    -1.86     -1.85    1.000e+01   9.982e+00  -1.783e-02
Calcite           0.00    -8.90     -8.90    1.000e+01   9.996e+00  -3.908e-03

-----------------------------Solution composition------------------------------

	Elements           Molality       Moles

	C                 2.174e-02   2.174e-02
	Ca                3.908e-03   3.908e-03

----------------------------Description of solution----------------------------

                                       pH  =   6.003      Charge balance
                                       pe  =   4.000      Adjusted to redox equilibrium
      Specific Conductance (µS/cm,  70°C)  = 1555
                          Density (g/cm³)  =   0.97836
                               Volume (L)  =   1.02332
                        Viscosity (mPa s)  =   0.40561
                        Activity of water  =   1.000
                 Ionic strength (mol/kgw)  =   1.173e-02
                       Mass of water (kg)  =   9.999e-01
                 Total alkalinity (eq/kg)  =   7.817e-03
                       Total CO2 (mol/kg)  =   2.174e-02
                         Temperature (°C)  =  70.00
                  Electrical balance (eq)  =  -1.216e-09
 Percent error, 100*(Cat-|An|)/(Cat+|An|)  =  -0.00
                               Iterations  =  15
                         Gamma iterations  =   3
                      Osmotic coefficient  =   0.96950
                         Density of water  =   0.97776
                                  Total H  = 1.110124e+02
                                  Total O  = 5.555360e+01

----------------------------Distribution of species----------------------------

                                                    MacInnes  MacInnes
                                MacInnes       Log       Log       Log    mole V
   Species          Molality    Activity  Molality  Activity     Gamma   cm³/mol

   H+              1.142e-06   9.934e-07    -5.942    -6.003    -0.061      0.00
   OH-             1.886e-07   1.626e-07    -6.724    -6.789    -0.065     -4.12
   H2O             5.551e+01   9.996e-01     1.744    -0.000     0.000     18.43
C(4)          2.174e-02
   CO2             1.393e-02   1.392e-02    -1.856    -1.856    -0.000     37.05
   HCO3-           7.816e-03   7.053e-03    -2.107    -2.152    -0.045     25.35
   CO3-2           8.744e-07   5.162e-07    -6.058    -6.287    -0.229     -4.26
Ca            3.908e-03
   Ca+2            3.908e-03   2.445e-03    -2.408    -2.612    -0.204    -18.26

------------------------------Saturation indices-------------------------------

  Phase               SI** log IAP   log K(343 K,   1 atm)

  Aragonite        -0.26     -8.90   -8.64  CaCO3
  Calcite           0.00     -8.90   -8.90  CaCO3
  CO2(g)           -0.01     -1.86   -1.85  CO2	 Pressure   1.0 atm, phi 0.996
  H2O(g)           -0.52     -0.00    0.51  H2O
  Portlandite     -11.00    -16.19   -5.19  Ca(OH)2

**For a gas, SI = log10(fugacity). Fugacity = pressure * phi / 1 atm.
  For ideal gases, phi = 1.

Reaction step 9.

Using solution 1.	
Using pure phase assemblage 1.	
Using temperature 1.	

-------------------------------Phase assemblage--------------------------------

                                                      Moles in assemblage
Phase               SI  log IAP  log K(T, P)   Initial       Final       Delta

CO2(g)           -0.01    -1.91     -1.90    1.000e+01   9.984e+00  -1.559e-02
Calcite           0.00    -9.03     -9.03    1.000e+01   9.997e+00  -3.267e-03

-----------------------------Solution composition------------------------------

	Elements           Molality       Moles

	C                 1.885e-02   1.885e-02
	Ca                3.267e-03   3.267e-03

----------------------------Description of solution----------------------------

                                       pH  =   6.010      Charge balance
                                       pe  =   4.000      Adjusted to redox equilibrium
      Specific Conductance (µS/cm,  80°C)  = 1487
                          Density (g/cm³)  =   0.97229
                               Volume (L)  =   1.02954
                        Viscosity (mPa s)  =   0.35569
                        Activity of water  =   1.000
                 Ionic strength (mol/kgw)  =   9.804e-03
                       Mass of water (kg)  =   9.999e-01
                 Total alkalinity (eq/kg)  =   6.535e-03
                       Total CO2 (mol/kg)  =   1.885e-02
                         Temperature (°C)  =  80.00
                  Electrical balance (eq)  =  -1.216e-09
 Percent error, 100*(Cat-|An|)/(Cat+|An|)  =  -0.00
                               Iterations  =  15
                         Gamma iterations  =   3
                      Osmotic coefficient  =   0.97136
                         Density of water  =   0.97179
                                  Total H  = 1.110124e+02
                                  Total O  = 5.554719e+01

----------------------------Distribution of species----------------------------

                                                    MacInnes  MacInnes
                                MacInnes       Log       Log       Log    mole V
   Species          Molality    Activity  Molality  Activity     Gamma   cm³/mol

   H+              1.115e-06   9.762e-07    -5.953    -6.010    -0.058      0.00
   OH-             3.027e-07   2.640e-07    -6.519    -6.578    -0.060     -4.54
   H2O             5.551e+01   9.996e-01     1.744    -0.000     0.000     18.54
C(4)          1.885e-02
   CO2             1.232e-02   1.232e-02    -1.909    -1.910    -0.000     37.67
   HCO3-           6.534e-03   5.929e-03    -2.185    -2.227    -0.042     25.09
   CO3-2           7.266e-07   4.441e-07    -6.139    -6.353    -0.214     -5.00
Ca            3.267e-03
   Ca+2            3.267e-03   2.084e-03    -2.486    -2.681    -0.195    -18.58

------------------------------Saturation indices-------------------------------

  Phase               SI** log IAP   log K(353 K,   1 atm)

  Aragonite        -0.27     -9.03   -8.76  CaCO3
  Calcite           0.00     -9.03   -9.03  CaCO3
  CO2(g)           -0.01     -1.91   -1.90  CO2	 Pressure   1.0 atm, phi 0.997
  H2O(g)           -0.33     -0.00    0.33  H2O
  Portlandite     -10.65    -15.84   -5.19  Ca(OH)2

**For a gas, SI = log10(fugacity). Fugacity = pressure * phi / 1 atm.
  For ideal gases, phi = 1.

Reaction step 10.

Using solution 1.	
Using pure phase assemblage 1.	
Using temperature 1.	

-------------------------------Phase assemblage--------------------------------

                                                      Moles in assemblage
Phase               SI  log IAP  log K(T, P)   Initial       Final       Delta

CO2(g)           -0.01    -1.95     -1.95    1.000e+01   9.986e+00  -1.385e-02
Calcite           0.00    -9.18     -9.18    1.000e+01   9.997e+00  -2.732e-03

-----------------------------Solution composition------------------------------

	Elements           Molality       Moles

	C                 1.658e-02   1.658e-02
	Ca                2.733e-03   2.732e-03

----------------------------Description of solution----------------------------

                                       pH  =   6.019      Charge balance
                                       pe  =   4.000      Adjusted to redox equilibrium
      Specific Conductance (µS/cm,  90°C)  = 1403
                          Density (g/cm³)  =   0.96573
                               Volume (L)  =   1.03640
                        Viscosity (mPa s)  =   0.31550
                        Activity of water  =   1.000
                 Ionic strength (mol/kgw)  =   8.199e-03
                       Mass of water (kg)  =   1.000e+00
                 Total alkalinity (eq/kg)  =   5.465e-03
                       Total CO2 (mol/kg)  =   1.658e-02
                         Temperature (°C)  =  90.00
                  Electrical balance (eq)  =  -1.216e-09
 Percent error, 100*(Cat-|An|)/(Cat+|An|)  =  -0.00
                               Iterations  =  14
                         Gamma iterations  =   3
                      Osmotic coefficient  =   0.97349
                         Density of water  =   0.96531
                                  Total H  = 1.110124e+02
                                  Total O  = 5.554212e+01

----------------------------Distribution of species----------------------------

                                                    MacInnes  MacInnes
                                MacInnes       Log       Log       Log    mole V
   Species          Molality    Activity  Molality  Activity     Gamma   cm³/mol

   H+              1.085e-06   9.563e-07    -5.965    -6.019    -0.055      0.00
   OH-             4.671e-07   4.116e-07    -6.331    -6.386    -0.055     -5.09
   H2O             5.551e+01   9.997e-01     1.744    -0.000     0.000     18.66
C(4)          1.658e-02
   CO2             1.112e-02   1.111e-02    -1.954    -1.954    -0.000     38.36
   HCO3-           5.465e-03   4.983e-03    -2.262    -2.302    -0.040     24.71
   CO3-2           5.911e-07   3.728e-07    -6.228    -6.429    -0.200     -5.98
Ca            2.733e-03
   Ca+2            2.733e-03   1.777e-03    -2.563    -2.750    -0.187    -18.97

------------------------------Saturation indices-------------------------------

  Phase               SI** log IAP   log K(363 K,   1 atm)

  Aragonite        -0.28     -9.18   -8.90  CaCO3
  Calcite           0.00     -9.18   -9.18  CaCO3
  CO2(g)           -0.01     -1.95   -1.95  CO2	 Pressure   1.0 atm, phi 0.997
  H2O(g)           -0.16     -0.00    0.16  H2O
  Portlandite     -10.33    -15.52   -5.19  Ca(OH)2

**For a gas, SI = log10(fugacity). Fugacity = pressure * phi / 1 atm.
  For ideal gases, phi = 1.

Reaction step 11.

Using solution 1.	
Using pure phase assemblage 1.	
Using temperature 1.	

-------------------------------Phase assemblage--------------------------------

                                                      Moles in assemblage
Phase               SI  log IAP  log K(T, P)   Initial       Final       Delta

CO2(g)           -0.01    -1.99     -1.98    1.000e+01   9.987e+00  -1.250e-02
Calcite           0.00    -9.33     -9.33    1.000e+01   9.998e+00  -2.286e-03

-----------------------------Solution composition------------------------------

	Elements           Molality       Moles

	C                 1.479e-02   1.479e-02
	Ca                2.286e-03   2.286e-03

----------------------------Description of solution----------------------------

                                       pH  =   6.029      Charge balance
                                       pe  =   4.000      Adjusted to redox equilibrium
      Specific Conductance (µS/cm, 100°C)  = 1309
                          Density (g/cm³)  =   0.95870
                               Volume (L)  =   1.04389
                        Viscosity (mPa s)  =   0.28266
                        Activity of water  =   1.000
                 Ionic strength (mol/kgw)  =   6.860e-03
                       Mass of water (kg)  =   1.000e+00
                 Total alkalinity (eq/kg)  =   4.572e-03
                       Total CO2 (mol/kg)  =   1.479e-02
                         Temperature (°C)  = 100.00
                  Electrical balance (eq)  =  -1.216e-09
 Percent error, 100*(Cat-|An|)/(Cat+|An|)  =  -0.00
                               Iterations  =  14
                         Gamma iterations  =   3
                      Osmotic coefficient  =   0.97579
                         Density of water  =   0.95835
                                  Total H  = 1.110124e+02
                                  Total O  = 5.553808e+01

----------------------------Distribution of species----------------------------

                                                    MacInnes  MacInnes
                                MacInnes       Log       Log       Log    mole V
   Species          Molality    Activity  Molality  Activity     Gamma   cm³/mol

   H+              1.054e-06   9.348e-07    -5.977    -6.029    -0.052      0.00
   OH-             6.946e-07   6.178e-07    -6.158    -6.209    -0.051     -5.78
   H2O             5.551e+01   9.997e-01     1.744    -0.000     0.000     18.80
C(4)          1.479e-02
   CO2             1.022e-02   1.021e-02    -1.991    -1.991    -0.000     39.13
   HCO3-           4.572e-03   4.188e-03    -2.340    -2.378    -0.038     24.22
   CO3-2           4.714e-07   3.059e-07    -6.327    -6.514    -0.188     -7.21
Ca            2.286e-03
   Ca+2            2.286e-03   1.516e-03    -2.641    -2.819    -0.178    -19.44

------------------------------Saturation indices-------------------------------

  Phase               SI** log IAP   log K(373 K,   1 atm)

  Aragonite        -0.28     -9.33   -9.05  CaCO3
  Calcite           0.00     -9.33   -9.33  CaCO3
  CO2(g)           -0.01     -1.99   -1.98  CO2	 Pressure   1.0 atm, phi 0.997
  H2O(g)           -0.01     -0.00    0.00  H2O
  Portlandite     -10.05    -15.24   -5.19  Ca(OH)2

**For a gas, SI = log10(fugacity). Fugacity = pressure * phi / 1 atm.
  For ideal gases, phi = 1.

Reaction step 12.

Using solution 1.	
Using pure phase assemblage 1.	
Using temperature 1.	

-------------------------------Phase assemblage--------------------------------

                                                      Moles in assemblage
Phase               SI  log IAP  log K(T, P)   Initial       Final       Delta

CO2(g)           -0.01    -2.02     -2.01    1.000e+01   9.989e+00  -1.145e-02
Calcite           0.00    -9.50     -9.50    1.000e+01   9.998e+00  -1.913e-03

-----------------------------Solution composition------------------------------

	Elements           Molality       Moles

	C                 1.336e-02   1.336e-02
	Ca                1.913e-03   1.913e-03

----------------------------Description of solution----------------------------

                                       pH  =   6.040      Charge balance
                                       pe  =   4.000      Adjusted to redox equilibrium
      Specific Conductance (µS/cm, 110°C)  = 1209
                          Density (g/cm³)  =   0.95125
                               Volume (L)  =   1.05198
                        Viscosity (mPa s)  =   0.25550
                        Activity of water  =   1.000
                 Ionic strength (mol/kgw)  =   5.741e-03
                       Mass of water (kg)  =   1.000e+00
                 Total alkalinity (eq/kg)  =   3.826e-03
                       Total CO2 (mol/kg)  =   1.336e-02
                         Temperature (°C)  = 110.00
                           Pressure (atm)  =  1.41
                  Electrical balance (eq)  =  -1.216e-09
 Percent error, 100*(Cat-|An|)/(Cat+|An|)  =  -0.00
                               Iterations  =  15
                         Gamma iterations  =   3
                      Osmotic coefficient  =   0.97817
                         Density of water  =   0.95095
                                  Total H  = 1.110124e+02
                                  Total O  = 5.553486e+01

----------------------------Distribution of species----------------------------

                                                    MacInnes  MacInnes
                                MacInnes       Log       Log       Log    mole V
   Species          Molality    Activity  Molality  Activity     Gamma   cm³/mol

   H+              1.023e-06   9.125e-07    -5.990    -6.040    -0.049      0.00
   OH-             9.979e-07   8.950e-07    -6.001    -6.048    -0.047     -6.63
   H2O             5.551e+01   9.997e-01     1.744    -0.000     0.000     18.95
C(4)          1.336e-02
   CO2             9.537e-03   9.531e-03    -2.021    -2.021    -0.000     40.00
   HCO3-           3.826e-03   3.520e-03    -2.417    -2.453    -0.036     23.60
   CO3-2           3.691e-07   2.460e-07    -6.433    -6.609    -0.176     -8.71
Ca            1.913e-03
   Ca+2            1.913e-03   1.293e-03    -2.718    -2.889    -0.170    -20.01

------------------------------Saturation indices-------------------------------

  Phase               SI** log IAP   log K(383 K,   1 atm)

  Aragonite        -0.29     -9.50   -9.21  CaCO3
  Calcite           0.00     -9.50   -9.50  CaCO3
  CO2(g)           -0.01     -2.02   -2.01  CO2	 Pressure   1.0 atm, phi 0.998
  H2O(g)            0.14     -0.00   -0.14  H2O
  Portlandite      -9.80    -14.98   -5.19  Ca(OH)2

**For a gas, SI = log10(fugacity). Fugacity = pressure * phi / 1 atm.
  For ideal gases, phi = 1.

Reaction step 13.

Using solution 1.	
Using pure phase assemblage 1.	
Using temperature 1.	

-------------------------------Phase assemblage--------------------------------

                                                      Moles in assemblage
Phase               SI  log IAP  log K(T, P)   Initial       Final       Delta

CO2(g)           -0.01    -2.04     -2.04    1.000e+01   9.989e+00  -1.063e-02
Calcite           0.00    -9.67     -9.67    1.000e+01   9.998e+00  -1.601e-03

-----------------------------Solution composition------------------------------

	Elements           Molality       Moles

	C                 1.224e-02   1.224e-02
	Ca                1.601e-03   1.601e-03

----------------------------Description of solution----------------------------

                                       pH  =   6.051      Charge balance
                                       pe  =   4.000      Adjusted to redox equilibrium
      Specific Conductance (µS/cm, 120°C)  = 1105
                          Density (g/cm³)  =   0.94336
                               Volume (L)  =   1.06070
                        Viscosity (mPa s)  =   0.23278
                        Activity of water  =   1.000
                 Ionic strength (mol/kgw)  =   4.806e-03
                       Mass of water (kg)  =   1.000e+00
                 Total alkalinity (eq/kg)  =   3.203e-03
                       Total CO2 (mol/kg)  =   1.224e-02
                         Temperature (°C)  = 120.00
                           Pressure (atm)  =  1.96
                  Electrical balance (eq)  =  -1.216e-09
 Percent error, 100*(Cat-|An|)/(Cat+|An|)  =  -0.00
                               Iterations  =  15
                         Gamma iterations  =   3
                      Osmotic coefficient  =   0.98058
                         Density of water  =   0.94311
                                  Total H  = 1.110124e+02
                                  Total O  = 5.553229e+01

----------------------------Distribution of species----------------------------

                                                    MacInnes  MacInnes
                                MacInnes       Log       Log       Log    mole V
   Species          Molality    Activity  Molality  Activity     Gamma   cm³/mol

   OH-             1.387e-06   1.254e-06    -5.858    -5.902    -0.044     -7.63
   H+              9.915e-07   8.901e-07    -6.004    -6.051    -0.047      0.00
   H2O             5.551e+01   9.998e-01     1.744    -0.000     0.000     19.10
C(4)          1.224e-02
   CO2             9.033e-03   9.027e-03    -2.044    -2.044    -0.000     40.99
   HCO3-           3.202e-03   2.958e-03    -2.495    -2.529    -0.034     22.86
   CO3-2           2.840e-07   1.939e-07    -6.547    -6.713    -0.166    -10.51
Ca            1.601e-03
   Ca+2            1.601e-03   1.102e-03    -2.795    -2.958    -0.162    -20.67

------------------------------Saturation indices-------------------------------

  Phase               SI** log IAP   log K(393 K,   2 atm)

  Aragonite        -0.29     -9.67   -9.38  CaCO3
  Calcite           0.00     -9.67   -9.67  CaCO3
  CO2(g)           -0.01     -2.04   -2.04  CO2	 Pressure   1.0 atm, phi 0.998
  H2O(g)            0.29     -0.00   -0.29  H2O
  Portlandite      -9.57    -14.76   -5.19  Ca(OH)2

**For a gas, SI = log10(fugacity). Fugacity = pressure * phi / 1 atm.
  For ideal gases, phi = 1.

Reaction step 14.

Using solution 1.	
Using pure phase assemblage 1.	
Using temperature 1.	

-------------------------------Phase assemblage--------------------------------

                                                      Moles in assemblage
Phase               SI  log IAP  log K(T, P)   Initial       Final       Delta

CO2(g)           -0.01    -2.06     -2.06    1.000e+01   9.990e+00  -1.001e-02
Calcite           0.00    -9.85     -9.85    1.000e+01   9.999e+00  -1.341e-03

-----------------------------Solution composition------------------------------

	Elements           Molality       Moles

	C                 1.135e-02   1.135e-02
	Ca                1.341e-03   1.341e-03

----------------------------Description of solution----------------------------

                                       pH  =   6.061      Charge balance
                                       pe  =   4.000      Adjusted to redox equilibrium
      Specific Conductance (µS/cm, 130°C)  = 1002
                          Density (g/cm³)  =   0.93505
                               Volume (L)  =   1.07008
                        Viscosity (mPa s)  =   0.21356
                        Activity of water  =   1.000
                 Ionic strength (mol/kgw)  =   4.023e-03
                       Mass of water (kg)  =   1.000e+00
                 Total alkalinity (eq/kg)  =   2.681e-03
                       Total CO2 (mol/kg)  =   1.135e-02
                         Temperature (°C)  = 130.00
                           Pressure (atm)  =  2.67
                  Electrical balance (eq)  =  -1.216e-09
 Percent error, 100*(Cat-|An|)/(Cat+|An|)  =  -0.00
                               Iterations  =  14
                         Gamma iterations  =   3
                      Osmotic coefficient  =   0.98294
                         Density of water  =   0.93484
                                  Total H  = 1.110124e+02
                                  Total O  = 5.553026e+01

----------------------------Distribution of species----------------------------

                                                    MacInnes  MacInnes
                                MacInnes       Log       Log       Log    mole V
   Species          Molality    Activity  Molality  Activity     Gamma   cm³/mol

   OH-             1.869e-06   1.701e-06    -5.728    -5.769    -0.041     -8.83
   H+              9.615e-07   8.680e-07    -6.017    -6.061    -0.044      0.00
   H2O             5.551e+01   9.998e-01     1.744    -0.000     0.000     19.27
C(4)          1.135e-02
   CO2             8.671e-03   8.664e-03    -2.062    -2.062    -0.000     42.11
   HCO3-           2.680e-03   2.485e-03    -2.572    -2.605    -0.033     21.98
   CO3-2           2.149e-07   1.500e-07    -6.668    -6.824    -0.156    -12.66
Ca            1.341e-03
   Ca+2            1.341e-03   9.393e-04    -2.873    -3.027    -0.155    -21.45

------------------------------Saturation indices-------------------------------

  Phase               SI** log IAP   log K(403 K,   3 atm)

  Aragonite        -0.29     -9.85   -9.56  CaCO3
  Calcite           0.00     -9.85   -9.85  CaCO3
  CO2(g)           -0.01     -2.06   -2.06  CO2	 Pressure   1.0 atm, phi 0.998
  H2O(g)            0.42     -0.00   -0.42  H2O
  Portlandite      -9.38    -14.57   -5.19  Ca(OH)2

**For a gas, SI = log10(fugacity). Fugacity = pressure * phi / 1 atm.
  For ideal gases, phi = 1.

Reaction step 15.

Using solution 1.	
Using pure phase assemblage 1.	
Using temperature 1.	

-------------------------------Phase assemblage--------------------------------

                                                      Moles in assemblage
Phase               SI  log IAP  log K(T, P)   Initial       Final       Delta

CO2(g)           -0.01    -2.07     -2.07    1.000e+01   9.990e+00  -9.547e-03
Calcite           0.00   -10.04    -10.04    1.000e+01   9.999e+00  -1.122e-03

-----------------------------Solution composition------------------------------

	Elements           Molality       Moles

	C                 1.067e-02   1.067e-02
	Ca                1.122e-03   1.122e-03

----------------------------Description of solution----------------------------

                                       pH  =   6.072      Charge balance
                                       pe  =   4.000      Adjusted to redox equilibrium
      Specific Conductance (µS/cm, 140°C)  = 902
                          Density (g/cm³)  =   0.92632
                               Volume (L)  =   1.08012
                        Viscosity (mPa s)  =   0.19717
                        Activity of water  =   1.000
                 Ionic strength (mol/kgw)  =   3.368e-03
                       Mass of water (kg)  =   1.000e+00
                 Total alkalinity (eq/kg)  =   2.245e-03
                       Total CO2 (mol/kg)  =   1.067e-02
                         Temperature (°C)  = 140.00
                           Pressure (atm)  =  3.57
                  Electrical balance (eq)  =  -1.216e-09
 Percent error, 100*(Cat-|An|)/(Cat+|An|)  =  -0.00
                               Iterations  =  13
                         Gamma iterations  =   3
                      Osmotic coefficient  =   0.98520
                         Density of water  =   0.92614
                                  Total H  = 1.110124e+02
                                  Total O  = 5.552868e+01

----------------------------Distribution of species----------------------------

                                                    MacInnes  MacInnes
                                MacInnes       Log       Log       Log    mole V
   Species          Molality    Activity  Molality  Activity     Gamma   cm³/mol

   OH-             2.445e-06   2.239e-06    -5.612    -5.650    -0.038    -10.24
   H+              9.327e-07   8.466e-07    -6.030    -6.072    -0.042      0.00
   H2O             5.551e+01   9.998e-01     1.744    -0.000     0.000     19.45
C(4)          1.067e-02
   CO2             8.427e-03   8.419e-03    -2.074    -2.075    -0.000     43.41
   HCO3-           2.243e-03   2.087e-03    -2.649    -2.680    -0.031     20.93
   CO3-2           1.601e-07   1.140e-07    -6.796    -6.943    -0.147    -15.19
Ca            1.122e-03
   Ca+2            1.122e-03   8.001e-04    -2.950    -3.097    -0.147    -22.36

------------------------------Saturation indices-------------------------------

  Phase               SI** log IAP   log K(413 K,   4 atm)

  Aragonite        -0.29    -10.04   -9.75  CaCO3
  Calcite           0.00    -10.04  -10.04  CaCO3
  CO2(g)           -0.01     -2.07   -2.07  CO2	 Pressure   1.0 atm, phi 0.998
  H2O(g)            0.54     -0.00   -0.54  H2O
  Portlandite      -9.21    -14.40   -5.19  Ca(OH)2

**For a gas, SI = log10(fugacity). Fugacity = pressure * phi / 1 atm.
  For ideal gases, phi = 1.

Reaction step 16.

Using solution 1.	
Using pure phase assemblage 1.	
Using temperature 1.	

-------------------------------Phase assemblage--------------------------------

                                                      Moles in assemblage
Phase               SI  log IAP  log K(T, P)   Initial       Final       Delta

CO2(g)           -0.01    -2.08     -2.08    1.000e+01   9.991e+00  -9.220e-03
Calcite           0.00   -10.24    -10.24    1.000e+01   9.999e+00  -9.398e-04

-----------------------------Solution composition------------------------------

	Elements           Molality       Moles

	C                 1.016e-02   1.016e-02
	Ca                9.399e-04   9.398e-04

----------------------------Description of solution----------------------------

                                       pH  =   6.083      Charge balance
                                       pe  =   4.000      Adjusted to redox equilibrium
      Specific Conductance (µS/cm, 150°C)  = 806
                          Density (g/cm³)  =   0.91716
                               Volume (L)  =   1.09087
                        Viscosity (mPa s)  =   0.18305
                        Activity of water  =   1.000
                 Ionic strength (mol/kgw)  =   2.821e-03
                       Mass of water (kg)  =   1.000e+00
                 Total alkalinity (eq/kg)  =   1.880e-03
                       Total CO2 (mol/kg)  =   1.016e-02
                         Temperature (°C)  = 150.00
                           Pressure (atm)  =  4.70
                  Electrical balance (eq)  =  -1.216e-09
 Percent error, 100*(Cat-|An|)/(Cat+|An|)  =  -0.00
                               Iterations  =  12
                         Gamma iterations  =   3
                      Osmotic coefficient  =   0.98733
                         Density of water  =   0.91701
                                  Total H  = 1.110124e+02
                                  Total O  = 5.552748e+01

----------------------------Distribution of species----------------------------

                                                    MacInnes  MacInnes
                                MacInnes       Log       Log       Log    mole V
   Species          Molality    Activity  Molality  Activity     Gamma   cm³/mol

   OH-             3.108e-06   2.862e-06    -5.507    -5.543    -0.036    -11.91
   H+              9.055e-07   8.262e-07    -6.043    -6.083    -0.040      0.00
   H2O             5.551e+01   9.998e-01     1.744    -0.000     0.000     19.65
C(4)          1.016e-02
   CO2             8.283e-03   8.275e-03    -2.082    -2.082    -0.000     44.90
   HCO3-           1.877e-03   1.753e-03    -2.726    -2.756    -0.030     19.71
   CO3-2           1.175e-07   8.529e-08    -6.930    -7.069    -0.139    -18.18
Ca            9.399e-04
   Ca+2            9.399e-04   6.812e-04    -3.027    -3.167    -0.140    -23.43

------------------------------Saturation indices-------------------------------

  Phase               SI** log IAP   log K(423 K,   5 atm)

  Aragonite        -0.28    -10.24   -9.95  CaCO3
  Calcite           0.00    -10.24  -10.24  CaCO3
  CO2(g)           -0.01     -2.08   -2.08  CO2	 Pressure   1.0 atm, phi 0.998
  H2O(g)            0.66     -0.00   -0.66  H2O
  Portlandite      -9.07    -14.25   -5.19  Ca(OH)2

**For a gas, SI = log10(fugacity). Fugacity = pressure * phi / 1 atm.
  For ideal gases, phi = 1.

Reaction step 17.

Using solution 1.	
Using pure phase assemblage 1.	
Using temperature 1.	

-------------------------------Phase assemblage--------------------------------

                                                      Moles in assemblage
Phase               SI  log IAP  log K(T, P)   Initial       Final       Delta

CO2(g)           -0.01    -2.09     -2.08    1.000e+01   9.991e+00  -9.013e-03
Calcite          -0.00   -10.44    -10.44    1.000e+01   9.999e+00  -7.871e-04

-----------------------------Solution composition------------------------------

	Elements           Molality       Moles

	C                 9.800e-03   9.800e-03
	Ca                7.871e-04   7.871e-04

----------------------------Description of solution----------------------------

                                       pH  =   6.093      Charge balance
                                       pe  =   4.000      Adjusted to redox equilibrium
      Specific Conductance (µS/cm, 160°C)  = 715
                          Density (g/cm³)  =   0.90757
                               Volume (L)  =   1.10237
                        Viscosity (mPa s)  =   0.17080
                        Activity of water  =   1.000
                 Ionic strength (mol/kgw)  =   2.362e-03
                       Mass of water (kg)  =   1.000e+00
                 Total alkalinity (eq/kg)  =   1.574e-03
                       Total CO2 (mol/kg)  =   9.800e-03
                         Temperature (°C)  = 160.00
                           Pressure (atm)  =  6.10
                  Electrical balance (eq)  =  -1.216e-09
 Percent error, 100*(Cat-|An|)/(Cat+|An|)  =  -0.00
                               Iterations  =  12
                         Gamma iterations  =   3
                      Osmotic coefficient  =   0.98927
                         Density of water  =   0.90745
                                  Total H  = 1.110124e+02
                                  Total O  = 5.552660e+01

----------------------------Distribution of species----------------------------

                                                    MacInnes  MacInnes
                                MacInnes       Log       Log       Log    mole V
   Species          Molality    Activity  Molality  Activity     Gamma   cm³/mol

   OH-             3.846e-06   3.559e-06    -5.415    -5.449    -0.034    -13.87
   H+              8.799e-07   8.068e-07    -6.056    -6.093    -0.038      0.00
   H2O             5.551e+01   9.998e-01     1.744    -0.000     0.000     19.85
C(4)          9.800e-03
   CO2             8.229e-03   8.221e-03    -2.085    -2.085    -0.000     46.62
   HCO3-           1.571e-03   1.471e-03    -2.804    -2.832    -0.029     18.27
   CO3-2           8.508e-08   6.283e-08    -7.070    -7.202    -0.132    -21.70
Ca            7.871e-04
   Ca+2            7.871e-04   5.797e-04    -3.104    -3.237    -0.133    -24.69

------------------------------Saturation indices-------------------------------

  Phase               SI** log IAP   log K(433 K,   6 atm)

  Aragonite        -0.27    -10.44  -10.17  CaCO3
  Calcite          -0.00    -10.44  -10.44  CaCO3
  CO2(g)           -0.01     -2.09   -2.08  CO2	 Pressure   1.0 atm, phi 0.998
  H2O(g)            0.77     -0.00   -0.77  H2O
  Portlandite      -8.95    -14.13   -5.19  Ca(OH)2

**For a gas, SI = log10(fugacity). Fugacity = pressure * phi / 1 atm.
  For ideal gases, phi = 1.

Reaction step 18.

Using solution 1.	
Using pure phase assemblage 1.	
Using temperature 1.	

-------------------------------Phase assemblage--------------------------------

                                                      Moles in assemblage
Phase               SI  log IAP  log K(T, P)   Initial       Final       Delta

CO2(g)           -0.01    -2.08     -2.08    1.000e+01   9.991e+00  -8.913e-03
Calcite          -0.00   -10.65    -10.65    1.000e+01   9.999e+00  -6.593e-04

-----------------------------Solution composition------------------------------

	Elements           Molality       Moles

	C                 9.572e-03   9.572e-03
	Ca                6.593e-04   6.593e-04

----------------------------Description of solution----------------------------

                                       pH  =   6.103      Charge balance
                                       pe  =   4.000      Adjusted to redox equilibrium
      Specific Conductance (µS/cm, 170°C)  = 631
                          Density (g/cm³)  =   0.89755
                               Volume (L)  =   1.11466
                        Viscosity (mPa s)  =   0.16006
                        Activity of water  =   1.000
                 Ionic strength (mol/kgw)  =   1.979e-03
                       Mass of water (kg)  =   1.000e+00
                 Total alkalinity (eq/kg)  =   1.319e-03
                       Total CO2 (mol/kg)  =   9.572e-03
                         Temperature (°C)  = 170.00
                           Pressure (atm)  =  7.82
                  Electrical balance (eq)  =  -1.216e-09
 Percent error, 100*(Cat-|An|)/(Cat+|An|)  =  -0.00
                               Iterations  =  12
                         Gamma iterations  =   3
                      Osmotic coefficient  =   0.99101
                         Density of water  =   0.89745
                                  Total H  = 1.110124e+02
                                  Total O  = 5.552602e+01

----------------------------Distribution of species----------------------------

                                                    MacInnes  MacInnes
                                MacInnes       Log       Log       Log    mole V
   Species          Molality    Activity  Molality  Activity     Gamma   cm³/mol

   OH-             4.635e-06   4.309e-06    -5.334    -5.366    -0.032    -16.19
   H+              8.560e-07   7.886e-07    -6.068    -6.103    -0.036      0.00
   H2O             5.551e+01   9.998e-01     1.744    -0.000     0.000     20.07
C(4)          9.572e-03
   CO2             8.257e-03   8.249e-03    -2.083    -2.084    -0.000     48.63
   HCO3-           1.315e-03   1.235e-03    -2.881    -2.908    -0.027     16.58
   CO3-2           6.080e-08   4.563e-08    -7.216    -7.341    -0.125    -25.86
Ca            6.593e-04
   Ca+2            6.593e-04   4.930e-04    -3.181    -3.307    -0.126    -26.17

------------------------------Saturation indices-------------------------------

  Phase               SI** log IAP   log K(443 K,   8 atm)

  Aragonite        -0.26    -10.65  -10.38  CaCO3
  Calcite          -0.00    -10.65  -10.65  CaCO3
  CO2(g)           -0.01     -2.08   -2.08  CO2	 Pressure   1.0 atm, phi 0.999
  H2O(g)            0.88     -0.00   -0.88  H2O
  Portlandite      -8.85    -14.04   -5.19  Ca(OH)2

**For a gas, SI = log10(fugacity). Fugacity = pressure * phi / 1 atm.
  For ideal gases, phi = 1.

Reaction step 19.

Using solution 1.	
Using pure phase assemblage 1.	
Using temperature 1.	

-------------------------------Phase assemblage--------------------------------

                                                      Moles in assemblage
Phase               SI  log IAP  log K(T, P)   Initial       Final       Delta

CO2(g)           -0.01    -2.08     -2.07    1.000e+01   9.991e+00  -8.911e-03
Calcite          -0.00   -10.86    -10.86    1.000e+01   9.999e+00  -5.525e-04

-----------------------------Solution composition------------------------------

	Elements           Molality       Moles

	C                 9.464e-03   9.464e-03
	Ca                5.525e-04   5.525e-04

----------------------------Description of solution----------------------------

                                       pH  =   6.113      Charge balance
                                       pe  =   4.000      Adjusted to redox equilibrium
      Specific Conductance (µS/cm, 180°C)  = 554
                          Density (g/cm³)  =   0.88707
                               Volume (L)  =   1.12781
                        Viscosity (mPa s)  =   0.15057
                        Activity of water  =   1.000
                 Ionic strength (mol/kgw)  =   1.658e-03
                       Mass of water (kg)  =   1.000e+00
                 Total alkalinity (eq/kg)  =   1.105e-03
                       Total CO2 (mol/kg)  =   9.464e-03
                         Temperature (°C)  = 180.00
                           Pressure (atm)  =  9.91
                  Electrical balance (eq)  =  -1.216e-09
 Percent error, 100*(Cat-|An|)/(Cat+|An|)  =  -0.00
                               Iterations  =  12
                         Gamma iterations  =   3
                      Osmotic coefficient  =   0.99254
                         Density of water  =   0.88700
                                  Total H  = 1.110124e+02
                                  Total O  = 5.552570e+01

----------------------------Distribution of species----------------------------

                                                    MacInnes  MacInnes
                                MacInnes       Log       Log       Log    mole V
   Species          Molality    Activity  Molality  Activity     Gamma   cm³/mol

   OH-             5.446e-06   5.085e-06    -5.264    -5.294    -0.030    -18.93
   H+              8.339e-07   7.716e-07    -6.079    -6.113    -0.034      0.00
   H2O             5.551e+01   9.998e-01     1.744    -0.000     0.000     20.31
C(4)          9.464e-03
   CO2             8.364e-03   8.355e-03    -2.078    -2.078    -0.000     50.98
   HCO3-           1.100e-03   1.036e-03    -2.959    -2.985    -0.026     14.59
   CO3-2           4.292e-08   3.269e-08    -7.367    -7.486    -0.118    -30.78
Ca            5.525e-04
   Ca+2            5.525e-04   4.191e-04    -3.258    -3.378    -0.120    -27.91

------------------------------Saturation indices-------------------------------

  Phase               SI** log IAP   log K(453 K,  10 atm)

  Aragonite        -0.25    -10.86  -10.61  CaCO3
  Calcite          -0.00    -10.86  -10.86  CaCO3
  CO2(g)           -0.01     -2.08   -2.07  CO2	 Pressure   1.0 atm, phi 0.999
  H2O(g)            0.97     -0.00   -0.97  H2O
  Portlandite      -8.78    -13.97   -5.18  Ca(OH)2

**For a gas, SI = log10(fugacity). Fugacity = pressure * phi / 1 atm.
  For ideal gases, phi = 1.

Reaction step 20.

Using solution 1.	
Using pure phase assemblage 1.	
Using temperature 1.	

-------------------------------Phase assemblage--------------------------------

                                                      Moles in assemblage
Phase               SI  log IAP  log K(T, P)   Initial       Final       Delta

CO2(g)           -0.01    -2.07     -2.06    1.000e+01   9.991e+00  -9.004e-03
Calcite           0.00   -11.08    -11.08    1.000e+01   1.000e+01  -4.632e-04

-----------------------------Solution composition------------------------------

	Elements           Molality       Moles

	C                 9.467e-03   9.467e-03
	Ca                4.632e-04   4.632e-04

----------------------------Description of solution----------------------------

                                       pH  =   6.122      Charge balance
                                       pe  =   4.000      Adjusted to redox equilibrium
      Specific Conductance (µS/cm, 190°C)  = 485
                          Density (g/cm³)  =   0.87613
                               Volume (L)  =   1.14189
                        Viscosity (mPa s)  =   0.14177
                        Activity of water  =   1.000
                 Ionic strength (mol/kgw)  =   1.390e-03
                       Mass of water (kg)  =   1.000e+00
                 Total alkalinity (eq/kg)  =   9.263e-04
                       Total CO2 (mol/kg)  =   9.467e-03
                         Temperature (°C)  = 190.00
                           Pressure (atm)  = 12.41
                  Electrical balance (eq)  =  -1.216e-09
 Percent error, 100*(Cat-|An|)/(Cat+|An|)  =  -0.00
                               Iterations  =  12
                         Gamma iterations  =   3
                      Osmotic coefficient  =   0.99385
                         Density of water  =   0.87608
                                  Total H  = 1.110124e+02
                                  Total O  = 5.552561e+01

----------------------------Distribution of species----------------------------

                                                    MacInnes  MacInnes
                                MacInnes       Log       Log       Log    mole V
   Species          Molality    Activity  Molality  Activity     Gamma   cm³/mol

   OH-             6.247e-06   5.855e-06    -5.204    -5.232    -0.028    -22.18
   H+              8.135e-07   7.558e-07    -6.090    -6.122    -0.032      0.00
   H2O             5.551e+01   9.998e-01     1.744    -0.000     0.000     20.56
C(4)          9.467e-03
   CO2             8.546e-03   8.537e-03    -2.068    -2.069    -0.000     53.74
   HCO3-           9.208e-04   8.694e-04    -3.036    -3.061    -0.025     12.24
   CO3-2           2.997e-08   2.314e-08    -7.523    -7.636    -0.112    -36.62
Ca            4.632e-04
   Ca+2            4.632e-04   3.562e-04    -3.334    -3.448    -0.114    -29.98

------------------------------Saturation indices-------------------------------

  Phase               SI** log IAP   log K(463 K,  12 atm)

  Aragonite        -0.23    -11.08  -10.85  CaCO3
  Calcite           0.00    -11.08  -11.08  CaCO3
  CO2(g)           -0.01     -2.07   -2.06  CO2	 Pressure   1.0 atm, phi 0.999
  H2O(g)            1.07     -0.00   -1.07  H2O
  Portlandite      -8.73    -13.91   -5.18  Ca(OH)2

**For a gas, SI = log10(fugacity). Fugacity = pressure * phi / 1 atm.
  For ideal gases, phi = 1.

Reaction step 21.

Using solution 1.	
Using pure phase assemblage 1.	
Using temperature 1.	

-------------------------------Phase assemblage--------------------------------

                                                      Moles in assemblage
Phase               SI  log IAP  log K(T, P)   Initial       Final       Delta

CO2(g)           -0.01    -2.06     -2.05    1.000e+01   9.991e+00  -9.187e-03
Calcite          -0.00   -11.31    -11.31    1.000e+01   1.000e+01  -3.885e-04

-----------------------------Solution composition------------------------------

	Elements           Molality       Moles

	C                 9.576e-03   9.576e-03
	Ca                3.885e-04   3.885e-04

----------------------------Description of solution----------------------------

                                       pH  =   6.130      Charge balance
                                       pe  =   4.000      Adjusted to redox equilibrium
      Specific Conductance (µS/cm, 200°C)  = 420
                          Density (g/cm³)  =   0.86469
                               Volume (L)  =   1.15700
                        Viscosity (mPa s)  =   0.13514
                        Activity of water  =   1.000
                 Ionic strength (mol/kgw)  =   1.166e-03
                       Mass of water (kg)  =   1.000e+00
                 Total alkalinity (eq/kg)  =   7.771e-04
                       Total CO2 (mol/kg)  =   9.576e-03
                         Temperature (°C)  = 200.00
                           Pressure (atm)  = 15.37
                  Electrical balance (eq)  =  -1.216e-09
 Percent error, 100*(Cat-|An|)/(Cat+|An|)  =  -0.00
                               Iterations  =  13
                         Gamma iterations  =   3
                      Osmotic coefficient  =   0.99496
                         Density of water  =   0.86467
                                  Total H  = 1.110124e+02
                                  Total O  = 5.552576e+01

----------------------------Distribution of species----------------------------

                                                    MacInnes  MacInnes
                                MacInnes       Log       Log       Log    mole V
   Species          Molality    Activity  Molality  Activity     Gamma   cm³/mol

   OH-             6.999e-06   6.582e-06    -5.155    -5.182    -0.027    -26.06
   H+              7.949e-07   7.414e-07    -6.100    -6.130    -0.030      0.00
   H2O             5.551e+01   9.998e-01     1.744    -0.000     0.000     20.84
C(4)          9.576e-03
   CO2             8.805e-03   8.795e-03    -2.055    -2.056    -0.001     57.02
   HCO3-           7.708e-04   7.295e-04    -3.113    -3.137    -0.024      9.45
   CO3-2           2.071e-08   1.619e-08    -7.684    -7.791    -0.107    -43.59
Ca            3.885e-04
   Ca+2            3.885e-04   3.027e-04    -3.411    -3.519    -0.108    -32.44

------------------------------Saturation indices-------------------------------

  Phase               SI** log IAP   log K(473 K,  15 atm)

  Aragonite        -0.22    -11.31  -11.09  CaCO3
  Calcite          -0.00    -11.31  -11.31  CaCO3
  CO2(g)           -0.01     -2.06   -2.05  CO2	 Pressure   1.0 atm, phi 0.999
  H2O(g)            1.16     -0.00   -1.16  H2O
  Portlandite      -8.71    -13.88   -5.18  Ca(OH)2

**For a gas, SI = log10(fugacity). Fugacity = pressure * phi / 1 atm.
  For ideal gases, phi = 1.

Reaction step 22.

Using solution 1.	
Using pure phase assemblage 1.	
Using temperature 1.	

-------------------------------Phase assemblage--------------------------------

                                                      Moles in assemblage
Phase               SI  log IAP  log K(T, P)   Initial       Final       Delta

CO2(g)           -0.01    -2.04     -2.03    1.000e+01   9.991e+00  -9.460e-03
Calcite           0.00   -11.54    -11.54    1.000e+01   1.000e+01  -3.263e-04

-----------------------------Solution composition------------------------------

	Elements           Molality       Moles

	C                 9.787e-03   9.787e-03
	Ca                3.263e-04   3.263e-04

----------------------------Description of solution----------------------------

                                       pH  =   6.138      Charge balance
                                       pe  =   4.000      Adjusted to redox equilibrium
      Specific Conductance (µS/cm, 210°C)  = 364
                          Density (g/cm³)  =   0.85273
                               Volume (L)  =   1.17323
                        Viscosity (mPa s)  =   0.12822 (solute contributions limited to 200 °C)
                        Activity of water  =   1.000
                 Ionic strength (mol/kgw)  =   9.796e-04
                       Mass of water (kg)  =   1.000e+00
                 Total alkalinity (eq/kg)  =   6.525e-04
                       Total CO2 (mol/kg)  =   9.787e-03
                         Temperature (°C)  = 210.00
                           Pressure (atm)  = 18.86
                  Electrical balance (eq)  =  -1.216e-09
 Percent error, 100*(Cat-|An|)/(Cat+|An|)  =  -0.00
                               Iterations  =  13
                         Gamma iterations  =   3
                      Osmotic coefficient  =   0.99587
                         Density of water  =   0.85274
                                  Total H  = 1.110124e+02
                                  Total O  = 5.552612e+01

----------------------------Distribution of species----------------------------

                                                    MacInnes  MacInnes
                                MacInnes       Log       Log       Log    mole V
   Species          Molality    Activity  Molality  Activity     Gamma   cm³/mol

   OH-             7.667e-06   7.233e-06    -5.115    -5.141    -0.025    -30.70
   H+              7.780e-07   7.282e-07    -6.109    -6.138    -0.029      0.00
   H2O             5.551e+01   9.998e-01     1.744    -0.000     0.000     21.13
C(4)          9.787e-03
   CO2             9.141e-03   9.130e-03    -2.039    -2.040    -0.001     60.92
   HCO3-           6.456e-04   6.124e-04    -3.190    -3.213    -0.023      6.11
   CO3-2           1.418e-08   1.122e-08    -7.848    -7.950    -0.102    -51.94
Ca            3.263e-04
   Ca+2            3.263e-04   2.573e-04    -3.486    -3.590    -0.103    -35.39

------------------------------Saturation indices-------------------------------

  Phase               SI** log IAP   log K(483 K,  19 atm)

  Aragonite        -0.20    -11.54  -11.34  CaCO3
  Calcite           0.00    -11.54  -11.54  CaCO3
  CO2(g)           -0.01     -2.04   -2.03  CO2	 Pressure   1.0 atm, phi 0.999
  H2O(g)            1.24     -0.00   -1.24  H2O
  Portlandite      -8.70    -13.87   -5.17  Ca(OH)2

**For a gas, SI = log10(fugacity). Fugacity = pressure * phi / 1 atm.
  For ideal gases, phi = 1.

Reaction step 23.

Using solution 1.	
Using pure phase assemblage 1.	
Using temperature 1.	

-------------------------------Phase assemblage--------------------------------

                                                      Moles in assemblage
Phase               SI  log IAP  log K(T, P)   Initial       Final       Delta

CO2(g)           -0.01    -2.02     -2.01    1.000e+01   9.990e+00  -9.824e-03
Calcite          -0.00   -11.77    -11.77    1.000e+01   1.000e+01  -2.743e-04

-----------------------------Solution composition------------------------------

	Elements           Molality       Moles

	C                 1.010e-02   1.010e-02
	Ca                2.743e-04   2.743e-04

----------------------------Description of solution----------------------------

                                       pH  =   6.145      Charge balance
                                       pe  =   4.000      Adjusted to redox equilibrium
      Specific Conductance (µS/cm, 220°C)  = 315
                          Density (g/cm³)  =   0.84021
                               Volume (L)  =   1.19073
                        Viscosity (mPa s)  =   0.12206 (solute contributions limited to 200 °C)
                        Activity of water  =   1.000
                 Ionic strength (mol/kgw)  =   8.237e-04
                       Mass of water (kg)  =   1.000e+00
                 Total alkalinity (eq/kg)  =   5.486e-04
                       Total CO2 (mol/kg)  =   1.010e-02
                         Temperature (°C)  = 220.00
                           Pressure (atm)  = 22.93
                  Electrical balance (eq)  =  -1.216e-09
 Percent error, 100*(Cat-|An|)/(Cat+|An|)  =  -0.00
                               Iterations  =  12
                         Gamma iterations  =   3
[...]
      Specific Conductance (µS/cm, 250°C)  = 201
                          Density (g/cm³)  =   0.79879
                               Volume (L)  =   1.25255
                        Viscosity (mPa s)  =   0.10651 (solute contributions limited to 200 °C)
                        Activity of water  =   1.000
                 Ionic strength (mol/kgw)  =   4.963e-04
                       Mass of water (kg)  =   1.000e+00
                 Total alkalinity (eq/kg)  =   3.303e-04
                       Total CO2 (mol/kg)  =   1.162e-02
                         Temperature (°C)  = 250.00
                           Pressure (atm)  = 39.23
                  Electrical balance (eq)  =  -1.216e-09
 Percent error, 100*(Cat-|An|)/(Cat+|An|)  =  -0.00
                               Iterations  =  12
                         Gamma iterations  =   3
                      Osmotic coefficient  =   0.99802
                         Density of water  =   0.79899
                                  Total H  = 1.110124e+02
                                  Total O  = 5.552962e+01

----------------------------Distribution of species----------------------------

                                                    MacInnes  MacInnes
                                MacInnes       Log       Log       Log    mole V
   Species          Molality    Activity  Molality  Activity     Gamma   cm³/mol

   OH-             9.001e-06   8.576e-06    -5.046    -5.067    -0.021    -61.86
   H+              7.265e-07   6.879e-07    -6.139    -6.162    -0.024      0.00
   H2O             5.551e+01   9.998e-01     1.744    -0.000     0.000     22.55
C(4)          1.162e-02
   CO2             1.130e-02   1.128e-02    -1.947    -1.948    -0.001     86.94
   HCO3-           3.221e-04   3.077e-04    -3.492    -3.512    -0.020    -16.16
   CO3-2           2.944e-09   2.418e-09    -8.531    -8.616    -0.085   -108.11
Ca            1.652e-04
   Ca+2            1.652e-04   1.356e-04    -3.782    -3.868    -0.086    -55.22

------------------------------Saturation indices-------------------------------

  Phase               SI** log IAP   log K(523 K,  39 atm)

  Aragonite        -0.09    -12.48  -12.40  CaCO3
  Calcite           0.00    -12.48  -12.48  CaCO3
  CO2(g)           -0.01     -1.95   -1.94  CO2	 Pressure   1.0 atm, phi 0.999
  H2O(g)            1.53     -0.00   -1.53  H2O
  Portlandite      -8.88    -14.00   -5.12  Ca(OH)2

**For a gas, SI = log10(fugacity). Fugacity = pressure * phi / 1 atm.
  For ideal gases, phi = 1.

Reaction step 27.

Using solution 1.	
Using pure phase assemblage 1.	
Using temperature 1.	

-------------------------------Phase assemblage--------------------------------

                                                      Moles in assemblage
Phase               SI  log IAP  log K(T, P)   Initial       Final       Delta

CO2(g)           -0.01    -1.92     -1.91    1.000e+01   9.988e+00  -1.216e-02
Calcite           0.00   -12.72    -12.72    1.000e+01   1.000e+01  -1.405e-04

-----------------------------Solution composition------------------------------

	Elements           Molality       Moles

	C                 1.230e-02   1.230e-02
	Ca                1.405e-04   1.405e-04

----------------------------Description of solution----------------------------

                                       pH  =   6.167      Charge balance
                                       pe  =   4.000      Adjusted to redox equilibrium
      Specific Conductance (µS/cm, 260°C)  = 172
                          Density (g/cm³)  =   0.78346
                               Volume (L)  =   1.27709
                        Viscosity (mPa s)  =   0.10202 (solute contributions limited to 200 °C)
                        Activity of water  =   1.000
                 Ionic strength (mol/kgw)  =   4.224e-04
                       Mass of water (kg)  =   1.000e+00
                 Total alkalinity (eq/kg)  =   2.811e-04
                       Total CO2 (mol/kg)  =   1.230e-02
                         Temperature (°C)  = 260.00
                           Pressure (atm)  = 46.23
                  Electrical balance (eq)  =  -1.216e-09
 Percent error, 100*(Cat-|An|)/(Cat+|An|)  =  -0.00
                               Iterations  =  12
                         Gamma iterations  =   3
                      Osmotic coefficient  =   0.99829
                         Density of water  =   0.78374
                                  Total H  = 1.110124e+02
                                  Total O  = 5.553096e+01

----------------------------Distribution of species----------------------------

                                                    MacInnes  MacInnes
                                MacInnes       Log       Log       Log    mole V
   Species          Molality    Activity  Molality  Activity     Gamma   cm³/mol

   OH-             8.971e-06   8.563e-06    -5.047    -5.067    -0.020    -74.88
   H+              7.174e-07   6.808e-07    -6.144    -6.167    -0.023      0.00
   H2O             5.551e+01   9.998e-01     1.744    -0.000     0.000     22.99
C(4)          1.230e-02
   CO2             1.203e-02   1.201e-02    -1.920    -1.920    -0.001     97.78
   HCO3-           2.728e-04   2.610e-04    -3.564    -3.583    -0.019    -25.45
   CO3-2           1.985e-09   1.642e-09    -8.702    -8.785    -0.083   -131.65
Ca            1.405e-04
   Ca+2            1.405e-04   1.162e-04    -3.852    -3.935    -0.083    -63.53

------------------------------Saturation indices-------------------------------

  Phase               SI** log IAP   log K(533 K,  46 atm)

  Aragonite        -0.05    -12.72  -12.67  CaCO3
  Calcite           0.00    -12.72  -12.72  CaCO3
  CO2(g)           -0.01     -1.92   -1.91  CO2	 Pressure   1.0 atm, phi 0.999
  H2O(g)            1.60     -0.00   -1.60  H2O
  Portlandite      -8.98    -14.07   -5.09  Ca(OH)2

**For a gas, SI = log10(fugacity). Fugacity = pressure * phi / 1 atm.
  For ideal gases, phi = 1.

Reaction step 28.

Using solution 1.	
Using pure phase assemblage 1.	
Using temperature 1.	

-------------------------------Phase assemblage--------------------------------

                                                      Moles in assemblage
Phase               SI  log IAP  log K(T, P)   Initial       Final       Delta

CO2(g)           -0.01    -1.89     -1.89    1.000e+01   9.987e+00  -1.292e-02
Calcite           0.00   -12.95    -12.95    1.000e+01   1.000e+01  -1.204e-04

-----------------------------Solution composition------------------------------

	Elements           Molality       Moles

	C                 1.304e-02   1.304e-02
	Ca                1.204e-04   1.204e-04

----------------------------Description of solution----------------------------

                                       pH  =   6.171      Charge balance
                                       pe  =   4.000      Adjusted to redox equilibrium
      Specific Conductance (µS/cm, 270°C)  = 149
                          Density (g/cm³)  =   0.76722
                               Volume (L)  =   1.30417
                        Viscosity (mPa s)  =   0.09779 (solute contributions limited to 200 °C)
                        Activity of water  =   1.000
                 Ionic strength (mol/kgw)  =   3.619e-04
                       Mass of water (kg)  =   1.000e+00
                 Total alkalinity (eq/kg)  =   2.408e-04
                       Total CO2 (mol/kg)  =   1.304e-02
                         Temperature (°C)  = 270.00
                           Pressure (atm)  = 54.13
                  Electrical balance (eq)  =  -1.216e-09
 Percent error, 100*(Cat-|An|)/(Cat+|An|)  =  -0.00
                               Iterations  =  12
                         Gamma iterations  =   3
                      Osmotic coefficient  =   0.99849
                         Density of water  =   0.76760
                                  Total H  = 1.110124e+02
                                  Total O  = 5.553242e+01

----------------------------Distribution of species----------------------------

                                                    MacInnes  MacInnes
                                MacInnes       Log       Log       Log    mole V
   Species          Molality    Activity  Molality  Activity     Gamma   cm³/mol

   OH-             8.833e-06   8.443e-06    -5.054    -5.074    -0.020    -91.48
   H+              7.099e-07   6.749e-07    -6.149    -6.171    -0.022      0.00
   H2O             5.551e+01   9.998e-01     1.744    -0.000     0.000     23.47
C(4)          1.304e-02
   CO2             1.281e-02   1.279e-02    -1.893    -1.893    -0.001    111.61
   HCO3-           2.326e-04   2.228e-04    -3.633    -3.652    -0.019    -37.29
   CO3-2           1.351e-09   1.123e-09    -8.869    -8.950    -0.080   -161.68
Ca            1.204e-04
   Ca+2            1.204e-04   1.002e-04    -3.919    -3.999    -0.080    -74.13

------------------------------Saturation indices-------------------------------

  Phase               SI** log IAP   log K(543 K,  54 atm)

  Aragonite        -0.02    -12.95  -12.93  CaCO3
  Calcite           0.00    -12.95  -12.95  CaCO3
  CO2(g)           -0.01     -1.89   -1.89  CO2	 Pressure   1.0 atm, phi 0.999
  H2O(g)            1.66     -0.00   -1.66  H2O
  Portlandite      -9.09    -14.15   -5.06  Ca(OH)2

**For a gas, SI = log10(fugacity). Fugacity = pressure * phi / 1 atm.
  For ideal gases, phi = 1.

Reaction step 29.

Using solution 1.	
Using pure phase assemblage 1.	
Using temperature 1.	

-------------------------------Phase assemblage--------------------------------

                                                      Moles in assemblage
Phase               SI  log IAP  log K(T, P)   Initial       Final       Delta

CO2(g)           -0.01    -1.87     -1.86    1.000e+01   9.986e+00  -1.368e-02
Calcite           0.00   -13.17    -13.17    1.000e+01   1.000e+01  -1.041e-04

-----------------------------Solution composition------------------------------

	Elements           Molality       Moles

	C                 1.379e-02   1.379e-02
	Ca                1.041e-04   1.041e-04

----------------------------Description of solution----------------------------

                                       pH  =   6.174      Charge balance
                                       pe  =   4.000      Adjusted to redox equilibrium
      Specific Conductance (µS/cm, 280°C)  = 129
                          Density (g/cm³)  =   0.74992
                               Volume (L)  =   1.33429
                        Viscosity (mPa s)  =   0.09374 (solute contributions limited to 200 °C)
                        Activity of water  =   1.000
                 Ionic strength (mol/kgw)  =   3.131e-04
                       Mass of water (kg)  =   1.000e+00
                 Total alkalinity (eq/kg)  =   2.082e-04
                       Total CO2 (mol/kg)  =   1.379e-02
                         Temperature (°C)  = 280.00
                           Pressure (atm)  = 62.98
                  Electrical balance (eq)  =  -1.216e-09
 Percent error, 100*(Cat-|An|)/(Cat+|An|)  =  -0.00
                               Iterations  =  12
                         Gamma iterations  =   3
                      Osmotic coefficient  =   0.99864
                         Density of water  =   0.75044
                                  Total H  = 1.110124e+02
                                  Total O  = 5.553389e+01

----------------------------Distribution of species----------------------------

                                                    MacInnes  MacInnes
                                MacInnes       Log       Log       Log    mole V
   Species          Molality    Activity  Molality  Activity     Gamma   cm³/mol

   OH-             8.630e-06   8.257e-06    -5.064    -5.083    -0.019   -113.02
   H+              7.039e-07   6.701e-07    -6.152    -6.174    -0.021      0.00
   H2O             5.551e+01   9.997e-01     1.744    -0.000     0.000     24.01
C(4)          1.379e-02
   CO2             1.359e-02   1.357e-02    -1.867    -1.868    -0.001    129.55
   HCO3-           2.003e-04   1.920e-04    -3.698    -3.717    -0.018    -52.66
   CO3-2           9.349e-10   7.805e-10    -9.029    -9.108    -0.078   -200.69
Ca            1.041e-04
   Ca+2            1.041e-04   8.705e-05    -3.982    -4.060    -0.078    -87.90

------------------------------Saturation indices-------------------------------

  Phase               SI** log IAP   log K(553 K,  63 atm)

  Aragonite         0.02    -13.17  -13.19  CaCO3
  Calcite           0.00    -13.17  -13.17  CaCO3
  CO2(g)           -0.01     -1.87   -1.86  CO2	 Pressure   1.0 atm, phi 1.000
  H2O(g)            1.72     -0.00   -1.72  H2O
  Portlandite      -9.22    -14.23   -5.00  Ca(OH)2

**For a gas, SI = log10(fugacity). Fugacity = pressure * phi / 1 atm.
  For ideal gases, phi = 1.

Reaction step 30.

Using solution 1.	
Using pure phase assemblage 1.	
Using temperature 1.	

-------------------------------Phase assemblage--------------------------------

                                                      Moles in assemblage
Phase               SI  log IAP  log K(T, P)   Initial       Final       Delta

CO2(g)           -0.01    -1.85     -1.84    1.000e+01   9.986e+00  -1.436e-02
Calcite           0.00   -13.37    -13.37    1.000e+01   1.000e+01  -9.140e-05

-----------------------------Solution composition------------------------------

	Elements           Molality       Moles

	C                 1.445e-02   1.445e-02
	Ca                9.140e-05   9.140e-05

----------------------------Description of solution----------------------------

                                       pH  =   6.176      Charge balance
                                       pe  =   4.000      Adjusted to redox equilibrium
      Specific Conductance (µS/cm, 290°C)  = 113
                          Density (g/cm³)  =   0.73140
                               Volume (L)  =   1.36812
                        Viscosity (mPa s)  =   0.08984 (solute contributions limited to 200 °C)
                        Activity of water  =   1.000
                 Ionic strength (mol/kgw)  =   2.749e-04
                       Mass of water (kg)  =   1.000e+00
                 Total alkalinity (eq/kg)  =   1.828e-04
                       Total CO2 (mol/kg)  =   1.445e-02
                         Temperature (°C)  = 290.00
                           Pressure (atm)  = 72.84
                  Electrical balance (eq)  =  -1.216e-09
 Percent error, 100*(Cat-|An|)/(Cat+|An|)  =  -0.00
                               Iterations  =  13
                         Gamma iterations  =   3
                      Osmotic coefficient  =   0.99875
                         Density of water  =   0.73209
                                  Total H  = 1.110124e+02
                                  Total O  = 5.553521e+01

----------------------------Distribution of species----------------------------

                                                    MacInnes  MacInnes
                                MacInnes       Log       Log       Log    mole V
   Species          Molality    Activity  Molality  Activity     Gamma   cm³/mol

   OH-             8.426e-06   8.067e-06    -5.074    -5.093    -0.019   -141.56
   H+              6.996e-07   6.665e-07    -6.155    -6.176    -0.021      0.00
   H2O             5.551e+01   9.997e-01     1.744    -0.000     0.000     24.61
C(4)          1.445e-02
   CO2             1.427e-02   1.425e-02    -1.845    -1.846    -0.001    153.33
   HCO3-           1.751e-04   1.679e-04    -3.757    -3.775    -0.018    -73.04
   CO3-2           6.672e-10   5.582e-10    -9.176    -9.253    -0.077   -252.44
Ca            9.140e-05
   Ca+2            9.140e-05   7.662e-05    -4.039    -4.116    -0.077   -106.16

------------------------------Saturation indices-------------------------------

  Phase               SI** log IAP   log K(563 K,  73 atm)

  Aragonite         0.06    -13.37  -13.43  CaCO3
  Calcite           0.00    -13.37  -13.37  CaCO3
  CO2(g)           -0.01     -1.85   -1.84  CO2	 Pressure   1.0 atm, phi 1.000
  H2O(g)            1.77     -0.00   -1.77  H2O
  Portlandite      -9.38    -14.30   -4.93  Ca(OH)2

**For a gas, SI = log10(fugacity). Fugacity = pressure * phi / 1 atm.
  For ideal gases, phi = 1.

Reaction step 31.

Using solution 1.	
Using pure phase assemblage 1.	
Using temperature 1.	

-------------------------------Phase assemblage--------------------------------

                                                      Moles in assemblage
Phase               SI  log IAP  log K(T, P)   Initial       Final       Delta

CO2(g)           -0.01    -1.83     -1.83    1.000e+01   9.985e+00  -1.479e-02
Calcite           0.00   -13.54    -13.54    1.000e+01   1.000e+01  -8.210e-05

-----------------------------Solution composition------------------------------

	Elements           Molality       Moles

	C                 1.487e-02   1.487e-02
	Ca                8.210e-05   8.210e-05

----------------------------Description of solution----------------------------

                                       pH  =   6.178      Charge balance
                                       pe  =   4.000      Adjusted to redox equilibrium
      Specific Conductance (µS/cm, 300°C)  = 100
                          Density (g/cm³)  =   0.71143
                               Volume (L)  =   1.40655
                        Viscosity (mPa s)  =   0.08604 (solute contributions limited to 200 °C)
                        Activity of water  =   1.000
                 Ionic strength (mol/kgw)  =   2.470e-04
                       Mass of water (kg)  =   1.000e+00
                 Total alkalinity (eq/kg)  =   1.642e-04
                       Total CO2 (mol/kg)  =   1.487e-02
                         Temperature (°C)  = 300.00
                           Pressure (atm)  = 83.80
                  Electrical balance (eq)  =  -1.216e-09
 Percent error, 100*(Cat-|An|)/(Cat+|An|)  =  -0.00
                               Iterations  =  13
                         Gamma iterations  =   3
                      Osmotic coefficient  =   0.99884
                         Density of water  =   0.71233
                                  Total H  = 1.110124e+02
                                  Total O  = 5.553605e+01

----------------------------Distribution of species----------------------------

                                                    MacInnes  MacInnes
                                MacInnes       Log       Log       Log    mole V
   Species          Molality    Activity  Molality  Activity     Gamma   cm³/mol

   OH-             8.318e-06   7.962e-06    -5.080    -5.099    -0.019   -180.41
   H+              6.971e-07   6.641e-07    -6.157    -6.178    -0.021      0.00
   H2O             5.551e+01   9.997e-01     1.744    -0.000     0.000     25.29
C(4)          1.487e-02
   CO2             1.472e-02   1.470e-02    -1.832    -1.833    -0.001    185.73
   HCO3-           1.566e-04   1.501e-04    -3.805    -3.824    -0.018   -100.78
   CO3-2           5.016e-10   4.194e-10    -9.300    -9.377    -0.078   -322.93
Ca            8.210e-05
   Ca+2            8.210e-05   6.881e-05    -4.086    -4.162    -0.077   -131.02

------------------------------Saturation indices-------------------------------

  Phase               SI** log IAP   log K(573 K,  84 atm)

  Aragonite         0.11    -13.54  -13.65  CaCO3
  Calcite           0.00    -13.54  -13.54  CaCO3
  CO2(g)           -0.01     -1.83   -1.83  CO2	 Pressure   1.0 atm, phi 1.000
  H2O(g)            1.82     -0.00   -1.82  H2O
  Portlandite      -9.55    -14.36   -4.81  Ca(OH)2

**For a gas, SI = log10(fugacity). Fugacity = pressure * phi / 1 atm.
  For ideal gases, phi = 1.

------------------
End of simulation.
------------------

------------------------------------
Reading input data for simulation 2.
------------------------------------

