WARNING: Database file from DATABASE keyword is used; command line argument ignored.
   Input file: cc_Malin
  Output file: cc_Malin.out
Database file: ../database/pitzer.dat

------------------
Reading data base.
------------------

	SOLUTION_MASTER_SPECIES
	SOLUTION_SPECIES
	PHASES
	PITZER
	GAS_BINARY_PARAMETERS
	EXCHANGE_MASTER_SPECIES
	EXCHANGE_SPECIES
	SURFACE_MASTER_SPECIES
	SURFACE_SPECIES
	MEAN_GAMMAS
	END
------------------------------------
Reading input data for simulation 1.
------------------------------------

	DATABASE ../database/pitzer.dat
	SELECTED_OUTPUT 101
	    file                 cc_Malin_101.sel
	USER_PUNCH 101
	    headings Mu SC
	    start
	10 PUNCH STR_F$(MU, 20, 12)
	20 PUNCH STR_F$(SC, 20, 10)
	    end
	SOLUTION 1
	pH 7 charge
	Na 3e3
	 Cl 3e3
	temp 200
	pressure 580
	EQUILIBRIUM_PHASES 1
	Calcite
	REACTION
	CO2 1
	 0 10*0.07
	INCREMENTAL_REACTIONS true
	USER_GRAPH 1
	-chart_title "calcite solubility at 200║C, 580 atm in 3 M NaCl"
	-axis_titles "CO2 / (mol/kgw)" "Ca / (mmol/kgw)" "CO2 pressure / atm"
	-plot_tsv_file cc_Malin.dat
	10 graph_x mol("CO2")
	20 graph_y tot("Ca") * 1e3
	END
-------------------------------------------
Beginning of initial solution calculations.
-------------------------------------------

Initial solution 1.	

-----------------------------Solution composition------------------------------

	Elements           Molality       Moles

	Cl                3.000e+00   3.000e+00
	Na                3.000e+00   3.000e+00

----------------------------Description of solution----------------------------

                                       pH  =   5.440      Charge balance
                                       pe  =   4.000    
      Specific Conductance (┬ĄS/cm, 200┬░C)  = 700847
                          Density (g/cm┬│)  =   1.01325
                               Volume (L)  =   1.15996
                        Viscosity (mPa s)  =   0.21631
                        Activity of water  =   0.902
                 Ionic strength (mol/kgw)  =   3.000e+00
                       Mass of water (kg)  =   1.000e+00
                 Total alkalinity (eq/kg)  =   7.061e-15
                         Temperature (┬░C)  = 200.00
                           Pressure (atm)  = 580.00
                  Electrical balance (eq)  =   1.279e-12
 Percent error, 100*(Cat-|An|)/(Cat+|An|)  =   0.00
                               Iterations  =  10
                         Gamma iterations  =   4
                      Osmotic coefficient  =   0.95199
                         Density of water  =   0.90188
                                  Total H  = 1.110124e+02
                                  Total O  = 5.550622e+01

----------------------------Distribution of species----------------------------

                                                    MacInnes  MacInnes
                                MacInnes       Log       Log       Log    mole V
   Species          Molality    Activity  Molality  Activity     Gamma   cm┬│/mol

   OH-             4.443e-06   1.866e-06    -5.352    -5.729    -0.377    -10.02
   H+              4.443e-06   3.628e-06    -5.352    -5.440    -0.088      0.00
   H2O             5.551e+01   9.022e-01     1.744    -0.045     0.000     19.98
Cl            3.000e+00
   Cl-             3.000e+00   1.260e+00     0.477     0.100    -0.377     13.32
Na            3.000e+00
   Na+             3.000e+00   1.605e+00     0.477     0.206    -0.272      3.74

------------------------------Saturation indices-------------------------------

  Phase               SI** log IAP   log K(473 K, 580 atm)

  H2O(g)            1.24     -0.04   -1.28  H2O
  Halite           -0.95      0.31    1.26  NaCl

**For a gas, SI = log10(fugacity). Fugacity = pressure * phi / 1 atm.
  For ideal gases, phi = 1.

-----------------------------------------
Beginning of batch-reaction calculations.
-----------------------------------------

Reaction step 1.

Using solution 1.	
Using pure phase assemblage 1.	
Using reaction 1.	

Reaction 1.	

	  0.000e+00 moles of the following reaction have been added:

	                 Relative
	Reactant            moles

	CO2                  1.00000

	                 Relative
	Element             moles
	C                    1.00000
	O                    2.00000

-------------------------------Phase assemblage--------------------------------

                                                      Moles in assemblage
Phase               SI  log IAP  log K(T, P)   Initial       Final       Delta

Calcite          -0.00   -10.93    -10.93    1.000e+01   9.999e+00  -7.382e-04

-----------------------------Solution composition------------------------------

	Elements           Molality       Moles

	C                 7.382e-04   7.382e-04
	Ca                7.382e-04   7.382e-04
	Cl                3.000e+00   3.000e+00
	Na                3.000e+00   3.000e+00

----------------------------Description of solution----------------------------

                                       pH  =   7.666      Charge balance
                                       pe  =   4.000      Adjusted to redox equilibrium
      Specific Conductance (┬ĄS/cm, 200┬░C)  = 701063
                          Density (g/cm┬│)  =   1.01332
                               Volume (L)  =   1.15995
                        Viscosity (mPa s)  =   0.21639
                        Activity of water  =   0.902
                 Ionic strength (mol/kgw)  =   3.002e+00
                       Mass of water (kg)  =   1.000e+00
                 Total alkalinity (eq/kg)  =   1.476e-03
                       Total CO2 (mol/kg)  =   7.382e-04
                         Temperature (┬░C)  = 200.00
                           Pressure (atm)  = 580.00
                  Electrical balance (eq)  =   4.096e-13
 Percent error, 100*(Cat-|An|)/(Cat+|An|)  =   0.00
                               Iterations  =  19
                         Gamma iterations  =   4
                      Osmotic coefficient  =   0.95201
                         Density of water  =   0.90188
                                  Total H  = 1.110124e+02
                                  Total O  = 5.550844e+01

----------------------------Distribution of species----------------------------

                                                    MacInnes  MacInnes
                                MacInnes       Log       Log       Log    mole V
   Species          Molality    Activity  Molality  Activity     Gamma   cm┬│/mol

   OH-             7.473e-04   3.134e-04    -3.126    -3.504    -0.377    -10.01
   H+              2.646e-08   2.160e-08    -7.577    -7.666    -0.088      0.00
   H2O             5.551e+01   9.022e-01     1.744    -0.045     0.000     19.98
C(4)          7.382e-04
   HCO3-           7.110e-04   1.396e-04    -3.148    -3.855    -0.707     25.56
   CO2             1.815e-05   2.934e-05    -4.741    -4.533     0.209     48.61
   CO3-2           9.044e-06   1.736e-07    -5.044    -6.760    -1.717     -8.59
Ca            7.382e-04
   Ca+2            7.382e-04   6.832e-05    -3.132    -4.165    -1.034    -16.55
Cl            3.000e+00
   Cl-             3.000e+00   1.260e+00     0.477     0.100    -0.377     13.32
Na            3.000e+00
   Na+             3.000e+00   1.605e+00     0.477     0.206    -0.272      3.74

------------------------------Saturation indices-------------------------------

  Phase               SI** log IAP   log K(473 K, 580 atm)

  Aragonite        -0.20    -10.93  -10.73  CaCO3
  Calcite          -0.00    -10.93  -10.93  CaCO3
  CO2(g)           -2.18     -4.53   -2.35  CO2
  Gaylussite       -7.60    -17.50   -9.90  CaNa2(CO3)2:5H2O
  H2O(g)            1.24     -0.04   -1.28  H2O
  Halite           -0.95      0.31    1.26  NaCl
  Nahcolite        -3.76    -14.22  -10.46  NaHCO3
  Natron           -4.68     -6.80   -2.11  Na2CO3:10H2O
  Pirssonite       -8.04    -17.36   -9.32  Na2Ca(CO3)2:2H2O
  Portlandite      -6.22    -11.17   -4.95  Ca(OH)2
  Trona            -9.74    -20.66  -10.92  Na3H(CO3)2:2H2O

**For a gas, SI = log10(fugacity). Fugacity = pressure * phi / 1 atm.
  For ideal gases, phi = 1.

Reaction step 2.

Using solution 1.	
Using pure phase assemblage 1.	
Using reaction 1.	

Reaction 1.	

	  7.000e-02 moles of the following reaction have been added:

	                 Relative
	Reactant            moles

	CO2                  1.00000

	                 Relative
	Element             moles
	C                    1.00000
	O                    2.00000

-------------------------------Phase assemblage--------------------------------

                                                      Moles in assemblage
Phase               SI  log IAP  log K(T, P)   Initial       Final       Delta

Calcite          -0.00   -10.93    -10.93    9.999e+00   9.993e+00  -6.040e-03

-----------------------------Solution composition------------------------------

	Elements           Molality       Moles

	C                 7.679e-02   7.678e-02
	Ca                6.779e-03   6.778e-03
	Cl                3.000e+00   3.000e+00
	Na                3.000e+00   3.000e+00

----------------------------Description of solution----------------------------

                                       pH  =   5.409      Charge balance
                                       pe  =   4.000      Adjusted to redox equilibrium
      Specific Conductance (┬ĄS/cm, 200┬░C)  = 696908
                          Density (g/cm┬│)  =   1.01365
                               Volume (L)  =   1.16321
                        Viscosity (mPa s)  =   0.21744
                        Activity of water  =   0.900
                 Ionic strength (mol/kgw)  =   3.021e+00
                       Mass of water (kg)  =   9.999e-01
                 Total alkalinity (eq/kg)  =   1.356e-02
                       Total CO2 (mol/kg)  =   7.679e-02
                         Temperature (┬░C)  = 200.00
                           Pressure (atm)  = 580.00
                  Electrical balance (eq)  =   1.926e-11
 Percent error, 100*(Cat-|An|)/(Cat+|An|)  =   0.00
                               Iterations  =   9
                         Gamma iterations  =   3
                      Osmotic coefficient  =   0.95723
                         Density of water  =   0.90188
                                  Total H  = 1.110124e+02
                                  Total O  = 5.566655e+01

----------------------------Distribution of species----------------------------

                                                    MacInnes  MacInnes
                                MacInnes       Log       Log       Log    mole V
   Species          Molality    Activity  Molality  Activity     Gamma   cm┬│/mol

   H+              4.790e-06   3.900e-06    -5.320    -5.409    -0.089      0.00
   OH-             4.173e-06   1.731e-06    -5.380    -5.762    -0.382     -9.96
   H2O             5.551e+01   9.004e-01     1.744    -0.046     0.000     19.98
C(4)          7.679e-02
   CO2             6.323e-02   1.015e-01    -1.199    -0.994     0.205     48.61
   HCO3-           1.356e-02   2.668e-03    -1.868    -2.574    -0.706     25.59
   CO3-2           9.826e-07   1.837e-08    -6.008    -7.736    -1.728     -8.57
Ca            6.779e-03
   Ca+2            6.779e-03   6.453e-04    -2.169    -3.190    -1.021    -16.55
Cl            3.000e+00
   Cl-             3.000e+00   1.259e+00     0.477     0.100    -0.377     13.34
Na            3.000e+00
   Na+             3.000e+00   1.621e+00     0.477     0.210    -0.267      3.74

------------------------------Saturation indices-------------------------------

  Phase               SI** log IAP   log K(473 K, 580 atm)

  Aragonite        -0.20    -10.93  -10.73  CaCO3
  Calcite          -0.00    -10.93  -10.93  CaCO3
  CO2(g)            1.36     -0.99   -2.35  CO2
  Gaylussite       -8.57    -18.47   -9.90  CaNa2(CO3)2:5H2O
  H2O(g)            1.24     -0.05   -1.28  H2O
  Halite           -0.95      0.31    1.26  NaCl
  Nahcolite        -2.47    -12.94  -10.46  NaHCO3
  Natron           -5.66     -7.77   -2.11  Na2CO3:10H2O
  Pirssonite       -9.01    -18.33   -9.32  Na2Ca(CO3)2:2H2O
  Portlandite      -9.76    -14.71   -4.95  Ca(OH)2
  Trona            -9.42    -20.34  -10.92  Na3H(CO3)2:2H2O

**For a gas, SI = log10(fugacity). Fugacity = pressure * phi / 1 atm.
  For ideal gases, phi = 1.

Reaction step 3.

Using solution 1.	
Using pure phase assemblage 1.	
Using reaction 1.	

Reaction 1.	

	  7.000e-02 moles of the following reaction have been added:

	                 Relative
	Reactant            moles

	CO2                  1.00000

	                 Relative
	Element             moles
	C                    1.00000
	O                    2.00000

-------------------------------Phase assemblage--------------------------------

                                                      Moles in assemblage
Phase               SI  log IAP  log K(T, P)   Initial       Final       Delta

Calcite          -0.00   -10.93    -10.93    9.993e+00   9.991e+00  -1.759e-03

-----------------------------Solution composition------------------------------

	Elements           Molality       Moles

	C                 1.486e-01   1.485e-01
	Ca                8.539e-03   8.537e-03
	Cl                3.000e+00   3.000e+00
	Na                3.000e+00   3.000e+00

----------------------------Description of solution----------------------------

                                       pH  =   5.197      Charge balance
                                       pe  =   4.000      Adjusted to redox equilibrium
      Specific Conductance (┬ĄS/cm, 200┬░C)  = 692623
                          Density (g/cm┬│)  =   1.01352
                               Volume (L)  =   1.16657
                        Viscosity (mPa s)  =   0.21785
                        Activity of water  =   0.899
                 Ionic strength (mol/kgw)  =   3.026e+00
                       Mass of water (kg)  =   9.998e-01
                 Total alkalinity (eq/kg)  =   1.708e-02
                       Total CO2 (mol/kg)  =   1.486e-01
                         Temperature (┬░C)  = 200.00
                           Pressure (atm)  = 580.00
                  Electrical balance (eq)  =   3.566e-11
 Percent error, 100*(Cat-|An|)/(Cat+|An|)  =   0.00
                               Iterations  =   8
                         Gamma iterations  =   3
                      Osmotic coefficient  =   0.96285
                         Density of water  =   0.90188
                                  Total H  = 1.110124e+02
                                  Total O  = 5.581183e+01

----------------------------Distribution of species----------------------------

                                                    MacInnes  MacInnes
                                MacInnes       Log       Log       Log    mole V
   Species          Molality    Activity  Molality  Activity     Gamma   cm┬│/mol

   H+              7.814e-06   6.355e-06    -5.107    -5.197    -0.090      0.00
   OH-             2.562e-06   1.060e-06    -5.591    -5.975    -0.383     -9.95
   H2O             5.551e+01   8.987e-01     1.744    -0.046     0.000     19.98
C(4)          1.486e-01
   CO2             1.315e-01   2.090e-01    -0.881    -0.680     0.201     48.61
   HCO3-           1.708e-02   3.366e-03    -1.767    -2.473    -0.705     25.59
   CO3-2           7.658e-07   1.422e-08    -6.116    -7.847    -1.731     -8.56
Ca            8.539e-03
   Ca+2            8.539e-03   8.334e-04    -2.069    -3.079    -1.011    -16.55
Cl            3.000e+00
   Cl-             3.000e+00   1.259e+00     0.477     0.100    -0.377     13.35
Na            3.000e+00
   Na+             3.000e+00   1.638e+00     0.477     0.214    -0.263      3.74

------------------------------Saturation indices-------------------------------

  Phase               SI** log IAP   log K(473 K, 580 atm)

  Aragonite        -0.20    -10.93  -10.73  CaCO3
  Calcite          -0.00    -10.93  -10.93  CaCO3
  CO2(g)            1.68     -0.68   -2.35  CO2
  Gaylussite       -8.68    -18.58   -9.90  CaNa2(CO3)2:5H2O
  H2O(g)            1.24     -0.05   -1.28  H2O
  Halite           -0.94      0.31    1.26  NaCl
  Nahcolite        -2.36    -12.83  -10.46  NaHCO3
  Natron           -5.77     -7.88   -2.11  Na2CO3:10H2O
  Pirssonite       -9.11    -18.44   -9.32  Na2Ca(CO3)2:2H2O
  Portlandite     -10.07    -15.03   -4.95  Ca(OH)2
  Trona            -9.42    -20.34  -10.92  Na3H(CO3)2:2H2O

**For a gas, SI = log10(fugacity). Fugacity = pressure * phi / 1 atm.
  For ideal gases, phi = 1.

Reaction step 4.

Using solution 1.	
Using pure phase assemblage 1.	
Using reaction 1.	

Reaction 1.	

	  7.000e-02 moles of the following reaction have been added:

	                 Relative
	Reactant            moles

	CO2                  1.00000

	                 Relative
	Element             moles
	C                    1.00000
	O                    2.00000

-------------------------------Phase assemblage--------------------------------

                                                      Moles in assemblage
Phase               SI  log IAP  log K(T, P)   Initial       Final       Delta

Calcite          -0.00   -10.93    -10.93    9.991e+00   9.990e+00  -1.160e-03

-----------------------------Solution composition------------------------------

	Elements           Molality       Moles

	C                 2.197e-01   2.197e-01
	Ca                9.699e-03   9.697e-03
	Cl                3.001e+00   3.000e+00
	Na                3.001e+00   3.000e+00

----------------------------Description of solution----------------------------

                                       pH  =   5.075      Charge balance
                                       pe  =   4.000      Adjusted to redox equilibrium
      Specific Conductance (┬ĄS/cm, 200┬░C)  = 688337
                          Density (g/cm┬│)  =   1.01333
                               Volume (L)  =   1.16995
                        Viscosity (mPa s)  =   0.21817
                        Activity of water  =   0.897
                 Ionic strength (mol/kgw)  =   3.030e+00
                       Mass of water (kg)  =   9.998e-01
                 Total alkalinity (eq/kg)  =   1.940e-02
                       Total CO2 (mol/kg)  =   2.197e-01
                         Temperature (┬░C)  = 200.00
                           Pressure (atm)  = 580.00
                  Electrical balance (eq)  =   6.291e-11
 Percent error, 100*(Cat-|An|)/(Cat+|An|)  =   0.00
                               Iterations  =   7
                         Gamma iterations  =   3
                      Osmotic coefficient  =   0.96830
                         Density of water  =   0.90188
                                  Total H  = 1.110124e+02
                                  Total O  = 5.595531e+01

----------------------------Distribution of species----------------------------

                                                    MacInnes  MacInnes
                                MacInnes       Log       Log       Log    mole V
   Species          Molality    Activity  Molality  Activity     Gamma   cm┬│/mol

   H+              1.036e-05   8.415e-06    -4.985    -5.075    -0.090      0.00
   OH-             1.934e-06   7.988e-07    -5.714    -6.098    -0.384     -9.94
   H2O             5.551e+01   8.970e-01     1.744    -0.047     0.000     19.98
C(4)          2.197e-01
   CO2             2.003e-01   3.154e-01    -0.698    -0.501     0.197     48.61
   HCO3-           1.940e-02   3.828e-03    -1.712    -2.417    -0.705     25.60
   CO3-2           6.602e-07   1.222e-08    -6.180    -7.913    -1.733     -8.56
Ca            9.699e-03
   Ca+2            9.699e-03   9.703e-04    -2.013    -3.013    -1.000    -16.55
Cl            3.001e+00
   Cl-             3.001e+00   1.259e+00     0.477     0.100    -0.377     13.35
Na            3.001e+00
   Na+             3.001e+00   1.656e+00     0.477     0.219    -0.258      3.74

------------------------------Saturation indices-------------------------------

  Phase               SI** log IAP   log K(473 K, 580 atm)

  Aragonite        -0.20    -10.93  -10.73  CaCO3
  Calcite          -0.00    -10.93  -10.93  CaCO3
  CO2(g)            1.85     -0.50   -2.35  CO2
  Gaylussite       -8.74    -18.64   -9.90  CaNa2(CO3)2:5H2O
  H2O(g)            1.23     -0.05   -1.28  H2O
  Halite           -0.94      0.32    1.26  NaCl
  Nahcolite        -2.30    -12.77  -10.46  NaHCO3
  Natron           -5.84     -7.95   -2.11  Na2CO3:10H2O
  Pirssonite       -9.17    -18.50   -9.32  Na2Ca(CO3)2:2H2O
  Portlandite     -10.25    -15.21   -4.95  Ca(OH)2
  Trona            -9.42    -20.34  -10.92  Na3H(CO3)2:2H2O

**For a gas, SI = log10(fugacity). Fugacity = pressure * phi / 1 atm.
  For ideal gases, phi = 1.

Reaction step 5.

Using solution 1.	
Using pure phase assemblage 1.	
Using reaction 1.	

Reaction 1.	

	  7.000e-02 moles of the following reaction have been added:

	                 Relative
	Reactant            moles

	CO2                  1.00000

	                 Relative
	Element             moles
	C                    1.00000
	O                    2.00000

-------------------------------Phase assemblage--------------------------------

                                                      Moles in assemblage
Phase               SI  log IAP  log K(T, P)   Initial       Final       Delta

Calcite          -0.00   -10.93    -10.93    9.990e+00   9.989e+00  -8.704e-04

-----------------------------Solution composition------------------------------

	Elements           Molality       Moles

	C                 2.906e-01   2.906e-01
	Ca                1.057e-02   1.057e-02
	Cl                3.001e+00   3.000e+00
	Na                3.001e+00   3.000e+00

----------------------------Description of solution----------------------------

                                       pH  =   4.989      Charge balance
                                       pe  =   4.000      Adjusted to redox equilibrium
      Specific Conductance (┬ĄS/cm, 200┬░C)  = 684071
                          Density (g/cm┬│)  =   1.01311
                               Volume (L)  =   1.17333
                        Viscosity (mPa s)  =   0.21845
                        Activity of water  =   0.895
                 Ionic strength (mol/kgw)  =   3.032e+00
                       Mass of water (kg)  =   9.998e-01
                 Total alkalinity (eq/kg)  =   2.114e-02
                       Total CO2 (mol/kg)  =   2.906e-01
                         Temperature (┬░C)  = 200.00
                           Pressure (atm)  = 580.00
                  Electrical balance (eq)  =   9.871e-11
 Percent error, 100*(Cat-|An|)/(Cat+|An|)  =   0.00
                               Iterations  =   7
                         Gamma iterations  =   3
                      Osmotic coefficient  =   0.97356
                         Density of water  =   0.90188
                                  Total H  = 1.110124e+02
                                  Total O  = 5.609792e+01

----------------------------Distribution of species----------------------------

                                                    MacInnes  MacInnes
                                MacInnes       Log       Log       Log    mole V
   Species          Molality    Activity  Molality  Activity     Gamma   cm┬│/mol

   H+              1.263e-05   1.025e-05    -4.898    -4.989    -0.091      0.00
   OH-             1.586e-06   6.543e-07    -5.800    -6.184    -0.384     -9.93
   H2O             5.551e+01   8.954e-01     1.744    -0.048     0.000     19.98
C(4)          2.906e-01
   CO2             2.695e-01   4.201e-01    -0.569    -0.377     0.193     48.61
   HCO3-           2.115e-02   4.176e-03    -1.675    -2.379    -0.705     25.60
   CO3-2           5.925e-07   1.094e-08    -6.227    -7.961    -1.734     -8.56
Ca            1.057e-02
   Ca+2            1.057e-02   1.084e-03    -1.976    -2.965    -0.989    -16.55
Cl            3.001e+00
   Cl-             3.001e+00   1.259e+00     0.477     0.100    -0.377     13.36
Na            3.001e+00
   Na+             3.001e+00   1.675e+00     0.477     0.224    -0.253      3.74

------------------------------Saturation indices-------------------------------

  Phase               SI** log IAP   log K(473 K, 580 atm)

  Aragonite        -0.20    -10.93  -10.73  CaCO3
  Calcite          -0.00    -10.93  -10.93  CaCO3
  CO2(g)            1.98     -0.38   -2.35  CO2
  Gaylussite       -8.78    -18.68   -9.90  CaNa2(CO3)2:5H2O
  H2O(g)            1.23     -0.05   -1.28  H2O
  Halite           -0.93      0.32    1.26  NaCl
  Nahcolite        -2.26    -12.73  -10.46  NaHCO3
  Natron           -5.88     -7.99   -2.11  Na2CO3:10H2O
  Pirssonite       -9.21    -18.54   -9.32  Na2Ca(CO3)2:2H2O
  Portlandite     -10.38    -15.33   -4.95  Ca(OH)2
  Trona            -9.42    -20.34  -10.92  Na3H(CO3)2:2H2O

**For a gas, SI = log10(fugacity). Fugacity = pressure * phi / 1 atm.
  For ideal gases, phi = 1.

Reaction step 6.

Using solution 1.	
Using pure phase assemblage 1.	
Using reaction 1.	

Reaction 1.	

	  7.000e-02 moles of the following reaction have been added:

	                 Relative
	Reactant            moles

	CO2                  1.00000

	                 Relative
	Element             moles
	C                    1.00000
	O                    2.00000

-------------------------------Phase assemblage--------------------------------

                                                      Moles in assemblage
Phase               SI  log IAP  log K(T, P)   Initial       Final       Delta

Calcite          -0.00   -10.93    -10.93    9.989e+00   9.989e+00  -6.927e-04

-----------------------------Solution composition------------------------------

	Elements           Molality       Moles

	C                 3.613e-01   3.613e-01
	Ca                1.126e-02   1.126e-02
	Cl                3.001e+00   3.000e+00
	Na                3.001e+00   3.000e+00

----------------------------Description of solution----------------------------

                                       pH  =   4.923      Charge balance
                                       pe  =   4.000      Adjusted to redox equilibrium
      Specific Conductance (┬ĄS/cm, 200┬░C)  = 679833
                          Density (g/cm┬│)  =   1.01287
                               Volume (L)  =   1.17672
                        Viscosity (mPa s)  =   0.21870
                        Activity of water  =   0.894
                 Ionic strength (mol/kgw)  =   3.034e+00
                       Mass of water (kg)  =   9.998e-01
                 Total alkalinity (eq/kg)  =   2.253e-02
                       Total CO2 (mol/kg)  =   3.613e-01
                         Temperature (┬░C)  = 200.00
                           Pressure (atm)  = 580.00
                  Electrical balance (eq)  =   1.414e-10
 Percent error, 100*(Cat-|An|)/(Cat+|An|)  =   0.00
                               Iterations  =   7
                         Gamma iterations  =   3
                      Osmotic coefficient  =   0.97861
                         Density of water  =   0.90188
                                  Total H  = 1.110124e+02
                                  Total O  = 5.624000e+01

----------------------------Distribution of species----------------------------

                                                    MacInnes  MacInnes
                                MacInnes       Log       Log       Log    mole V
   Species          Molality    Activity  Molality  Activity     Gamma   cm┬│/mol

   H+              1.473e-05   1.194e-05    -4.832    -4.923    -0.091      0.00
   OH-             1.360e-06   5.607e-07    -5.867    -6.251    -0.385     -9.93
   H2O             5.551e+01   8.937e-01     1.744    -0.049     0.000     19.98
C(4)          3.613e-01
   CO2             3.388e-01   5.229e-01    -0.470    -0.282     0.188     48.61
   HCO3-           2.254e-02   4.454e-03    -1.647    -2.351    -0.704     25.61
   CO3-2           5.435e-07   1.002e-08    -6.265    -7.999    -1.735     -8.55
Ca            1.126e-02
   Ca+2            1.126e-02   1.183e-03    -1.948    -2.927    -0.978    -16.55
Cl            3.001e+00
   Cl-             3.001e+00   1.259e+00     0.477     0.100    -0.377     13.36
Na            3.001e+00
   Na+             3.001e+00   1.693e+00     0.477     0.229    -0.249      3.74

------------------------------Saturation indices-------------------------------

  Phase               SI** log IAP   log K(473 K, 580 atm)

  Aragonite        -0.20    -10.93  -10.73  CaCO3
  Calcite          -0.00    -10.93  -10.93  CaCO3
  CO2(g)            2.07     -0.28   -2.35  CO2
  Gaylussite       -8.81    -18.71   -9.90  CaNa2(CO3)2:5H2O
  H2O(g)            1.23     -0.05   -1.28  H2O
  Halite           -0.93      0.33    1.26  NaCl
  Nahcolite        -2.23    -12.69  -10.46  NaHCO3
  Natron           -5.92     -8.03   -2.11  Na2CO3:10H2O
  Pirssonite       -9.24    -18.57   -9.32  Na2Ca(CO3)2:2H2O
  Portlandite     -10.48    -15.43   -4.95  Ca(OH)2
  Trona            -9.42    -20.33  -10.92  Na3H(CO3)2:2H2O

**For a gas, SI = log10(fugacity). Fugacity = pressure * phi / 1 atm.
  For ideal gases, phi = 1.

Reaction step 7.

Using solution 1.	
Using pure phase assemblage 1.	
Using reaction 1.	

Reaction 1.	

	  7.000e-02 moles of the following reaction have been added:

	                 Relative
	Reactant            moles

	CO2                  1.00000

	                 Relative
	Element             moles
	C                    1.00000
	O                    2.00000

-------------------------------Phase assemblage--------------------------------

                                                      Moles in assemblage
Phase               SI  log IAP  log K(T, P)   Initial       Final       Delta

Calcite          -0.00   -10.93    -10.93    9.989e+00   9.988e+00  -5.699e-04

-----------------------------Solution composition------------------------------

	Elements           Molality       Moles

	C                 4.319e-01   4.318e-01
	Ca                1.183e-02   1.183e-02
	Cl                3.001e+00   3.000e+00
	Na                3.001e+00   3.000e+00

----------------------------Description of solution----------------------------

                                       pH  =   4.869      Charge balance
                                       pe  =   4.000      Adjusted to redox equilibrium
      Specific Conductance (┬ĄS/cm, 200┬░C)  = 675628
                          Density (g/cm┬│)  =   1.01262
                               Volume (L)  =   1.18010
                        Viscosity (mPa s)  =   0.21893
                        Activity of water  =   0.892
                 Ionic strength (mol/kgw)  =   3.036e+00
                       Mass of water (kg)  =   9.998e-01
                 Total alkalinity (eq/kg)  =   2.367e-02
                       Total CO2 (mol/kg)  =   4.319e-01
                         Temperature (┬░C)  = 200.00
                           Pressure (atm)  = 580.00
                  Electrical balance (eq)  =   1.897e-10
 Percent error, 100*(Cat-|An|)/(Cat+|An|)  =   0.00
                               Iterations  =   7
                         Gamma iterations  =   3
                      Osmotic coefficient  =   0.98345
                         Density of water  =   0.90188
                                  Total H  = 1.110124e+02
                                  Total O  = 5.638171e+01

----------------------------Distribution of species----------------------------

                                                    MacInnes  MacInnes
                                MacInnes       Log       Log       Log    mole V
   Species          Molality    Activity  Molality  Activity     Gamma   cm┬│/mol

   H+              1.669e-05   1.352e-05    -4.778    -4.869    -0.091      0.00
   OH-             1.199e-06   4.943e-07    -5.921    -6.306    -0.385     -9.92
   H2O             5.551e+01   8.921e-01     1.744    -0.050     0.000     19.98
C(4)          4.319e-01
   CO2             4.082e-01   6.237e-01    -0.389    -0.205     0.184     48.61
   HCO3-           2.368e-02   4.684e-03    -1.626    -2.329    -0.704     25.61
   CO3-2           5.054e-07   9.303e-09    -6.296    -8.031    -1.735     -8.55
Ca            1.183e-02
   Ca+2            1.183e-02   1.274e-03    -1.927    -2.895    -0.968    -16.55
Cl            3.001e+00
   Cl-             3.001e+00   1.259e+00     0.477     0.100    -0.377     13.36
Na            3.001e+00
   Na+             3.001e+00   1.712e+00     0.477     0.233    -0.244      3.74

------------------------------Saturation indices-------------------------------

  Phase               SI** log IAP   log K(473 K, 580 atm)

  Aragonite        -0.20    -10.93  -10.73  CaCO3
  Calcite          -0.00    -10.93  -10.93  CaCO3
  CO2(g)            2.15     -0.21   -2.35  CO2
  Gaylussite       -8.84    -18.74   -9.90  CaNa2(CO3)2:5H2O
  H2O(g)            1.23     -0.05   -1.28  H2O
  Halite           -0.92      0.33    1.26  NaCl
  Nahcolite        -2.20    -12.67  -10.46  NaHCO3
  Natron           -5.95     -8.06   -2.11  Na2CO3:10H2O
  Pirssonite       -9.27    -18.59   -9.32  Na2Ca(CO3)2:2H2O
  Portlandite     -10.55    -15.51   -4.95  Ca(OH)2
  Trona            -9.41    -20.33  -10.92  Na3H(CO3)2:2H2O

**For a gas, SI = log10(fugacity). Fugacity = pressure * phi / 1 atm.
  For ideal gases, phi = 1.

Reaction step 8.

Using solution 1.	
Using pure phase assemblage 1.	
Using reaction 1.	

Reaction 1.	

	  7.000e-02 moles of the following reaction have been added:

	                 Relative
	Reactant            moles

	CO2                  1.00000

	                 Relative
	Element             moles
	C                    1.00000
	O                    2.00000

-------------------------------Phase assemblage--------------------------------

                                                      Moles in assemblage
Phase               SI  log IAP  log K(T, P)   Initial       Final       Delta

Calcite           0.00   -10.93    -10.93    9.988e+00   9.988e+00  -4.788e-04

-----------------------------Solution composition------------------------------

	Elements           Molality       Moles

	C                 5.024e-01   5.023e-01
	Ca                1.231e-02   1.231e-02
	Cl                3.001e+00   3.000e+00
	Na                3.001e+00   3.000e+00

----------------------------Description of solution----------------------------

                                       pH  =   4.823      Charge balance
                                       pe  =   4.000      Adjusted to redox equilibrium
      Specific Conductance (┬ĄS/cm, 200┬░C)  = 671455
                          Density (g/cm┬│)  =   1.01236
                               Volume (L)  =   1.18350
                        Viscosity (mPa s)  =   0.21915
                        Activity of water  =   0.890
                 Ionic strength (mol/kgw)  =   3.038e+00
                       Mass of water (kg)  =   9.998e-01
                 Total alkalinity (eq/kg)  =   2.462e-02
                       Total CO2 (mol/kg)  =   5.024e-01
                         Temperature (┬░C)  = 200.00
                           Pressure (atm)  = 580.00
                  Electrical balance (eq)  =   2.428e-10
 Percent error, 100*(Cat-|An|)/(Cat+|An|)  =   0.00
                               Iterations  =   7
                         Gamma iterations  =   3
                      Osmotic coefficient  =   0.98808
                         Density of water  =   0.90188
                                  Total H  = 1.110124e+02
                                  Total O  = 5.652315e+01

----------------------------Distribution of species----------------------------

                                                    MacInnes  MacInnes
                                MacInnes       Log       Log       Log    mole V
   Species          Molality    Activity  Molality  Activity     Gamma   cm┬│/mol

   H+              1.855e-05   1.502e-05    -4.732    -4.823    -0.092      0.00
   OH-             1.078e-06   4.443e-07    -5.967    -6.352    -0.385     -9.92
   H2O             5.551e+01   8.905e-01     1.744    -0.050     0.000     19.98
C(4)          5.024e-01
   CO2             4.778e-01   7.226e-01    -0.321    -0.141     0.180     48.61
   HCO3-           2.464e-02   4.878e-03    -1.608    -2.312    -0.703     25.61
   CO3-2           4.744e-07   8.725e-09    -6.324    -8.059    -1.735     -8.55
Ca            1.231e-02
   Ca+2            1.231e-02   1.359e-03    -1.910    -2.867    -0.957    -16.55
Cl            3.001e+00
   Cl-             3.001e+00   1.259e+00     0.477     0.100    -0.377     13.36
Na            3.001e+00
   Na+             3.001e+00   1.731e+00     0.477     0.238    -0.239      3.74

------------------------------Saturation indices-------------------------------

  Phase               SI** log IAP   log K(473 K, 580 atm)

  Aragonite        -0.20    -10.93  -10.73  CaCO3
  Calcite           0.00    -10.93  -10.93  CaCO3
  CO2(g)            2.21     -0.14   -2.35  CO2
  Gaylussite       -8.86    -18.76   -9.90  CaNa2(CO3)2:5H2O
  H2O(g)            1.23     -0.05   -1.28  H2O
  Halite           -0.92      0.34    1.26  NaCl
  Nahcolite        -2.18    -12.64  -10.46  NaHCO3
  Natron           -5.97     -8.09   -2.11  Na2CO3:10H2O
  Pirssonite       -9.29    -18.61   -9.32  Na2Ca(CO3)2:2H2O
  Portlandite     -10.62    -15.57   -4.95  Ca(OH)2
  Trona            -9.41    -20.33  -10.92  Na3H(CO3)2:2H2O

**For a gas, SI = log10(fugacity). Fugacity = pressure * phi / 1 atm.
  For ideal gases, phi = 1.

Reaction step 9.

Using solution 1.	
Using pure phase assemblage 1.	
Using reaction 1.	

Reaction 1.	

	  7.000e-02 moles of the following reaction have been added:

	                 Relative
	Reactant            moles

	CO2                  1.00000

	                 Relative
	Element             moles
	C                    1.00000
	O                    2.00000

-------------------------------Phase assemblage--------------------------------

                                                      Moles in assemblage
Phase               SI  log IAP  log K(T, P)   Initial       Final       Delta

Calcite          -0.00   -10.93    -10.93    9.988e+00   9.987e+00  -4.080e-04

-----------------------------Solution composition------------------------------

	Elements           Molality       Moles

	C                 5.728e-01   5.727e-01
	Ca                1.272e-02   1.272e-02
	Cl                3.001e+00   3.000e+00
	Na                3.001e+00   3.000e+00

----------------------------Description of solution----------------------------

                                       pH  =   4.784      Charge balance
                                       pe  =   4.000      Adjusted to redox equilibrium
      Specific Conductance (┬ĄS/cm, 200┬░C)  = 667318
                          Density (g/cm┬│)  =   1.01210
                               Volume (L)  =   1.18689
                        Viscosity (mPa s)  =   0.21935
                        Activity of water  =   0.889
                 Ionic strength (mol/kgw)  =   3.039e+00
                       Mass of water (kg)  =   9.998e-01
                 Total alkalinity (eq/kg)  =   2.544e-02
                       Total CO2 (mol/kg)  =   5.728e-01
                         Temperature (┬░C)  = 200.00
                           Pressure (atm)  = 580.00
                  Electrical balance (eq)  =   2.999e-10
 Percent error, 100*(Cat-|An|)/(Cat+|An|)  =   0.00
                               Iterations  =   7
                         Gamma iterations  =   3
                      Osmotic coefficient  =   0.99252
                         Density of water  =   0.90188
                                  Total H  = 1.110124e+02
                                  Total O  = 5.666437e+01

----------------------------Distribution of species----------------------------

                                                    MacInnes  MacInnes
                                MacInnes       Log       Log       Log    mole V
   Species          Molality    Activity  Molality  Activity     Gamma   cm┬│/mol

   H+              2.032e-05   1.644e-05    -4.692    -4.784    -0.092      0.00
   OH-             9.829e-07   4.051e-07    -6.007    -6.392    -0.385     -9.92
   H2O             5.551e+01   8.889e-01     1.744    -0.051     0.000     19.98
C(4)          5.728e-01
   CO2             5.474e-01   8.194e-01    -0.262    -0.086     0.175     48.61
   HCO3-           2.546e-02   5.044e-03    -1.594    -2.297    -0.703     25.61
   CO3-2           4.483e-07   8.241e-09    -6.348    -8.084    -1.736     -8.55
Ca            1.272e-02
   Ca+2            1.272e-02   1.438e-03    -1.896    -2.842    -0.947    -16.55
Cl            3.001e+00
   Cl-             3.001e+00   1.259e+00     0.477     0.100    -0.377     13.36
Na            3.001e+00
   Na+             3.001e+00   1.750e+00     0.477     0.243    -0.234      3.74

------------------------------Saturation indices-------------------------------

  Phase               SI** log IAP   log K(473 K, 580 atm)

  Aragonite        -0.20    -10.93  -10.73  CaCO3
  Calcite          -0.00    -10.93  -10.93  CaCO3
  CO2(g)            2.27     -0.09   -2.35  CO2
  Gaylussite       -8.88    -18.78   -9.90  CaNa2(CO3)2:5H2O
  H2O(g)            1.23     -0.05   -1.28  H2O
  Halite           -0.91      0.34    1.26  NaCl
  Nahcolite        -2.16    -12.63  -10.46  NaHCO3
  Natron           -6.00     -8.11   -2.11  Na2CO3:10H2O
  Pirssonite       -9.30    -18.63   -9.32  Na2Ca(CO3)2:2H2O
  Portlandite     -10.67    -15.63   -4.95  Ca(OH)2
  Trona            -9.41    -20.33  -10.92  Na3H(CO3)2:2H2O

**For a gas, SI = log10(fugacity). Fugacity = pressure * phi / 1 atm.
  For ideal gases, phi = 1.

Reaction step 10.

Using solution 1.	
Using pure phase assemblage 1.	
Using reaction 1.	

Reaction 1.	

	  7.000e-02 moles of the following reaction have been added:

	                 Relative
	Reactant            moles

	CO2                  1.00000

	                 Relative
	Element             moles
	C                    1.00000
	O                    2.00000

-------------------------------Phase assemblage--------------------------------

                                                      Moles in assemblage
Phase               SI  log IAP  log K(T, P)   Initial       Final       Delta

Calcite          -0.00   -10.93    -10.93    9.987e+00   9.987e+00  -3.510e-04

-----------------------------Solution composition------------------------------

	Elements           Molality       Moles

	C                 6.432e-01   6.431e-01
	Ca                1.307e-02   1.307e-02
	Cl                3.001e+00   3.000e+00
	Na                3.001e+00   3.000e+00

----------------------------Description of solution----------------------------

                                       pH  =   4.750      Charge balance
                                       pe  =   4.000      Adjusted to redox equilibrium
      Specific Conductance (┬ĄS/cm, 200┬░C)  = 663214
                          Density (g/cm┬│)  =   1.01183
                               Volume (L)  =   1.19028
                        Viscosity (mPa s)  =   0.21955
                        Activity of water  =   0.887
                 Ionic strength (mol/kgw)  =   3.040e+00
                       Mass of water (kg)  =   9.998e-01
                 Total alkalinity (eq/kg)  =   2.614e-02
                       Total CO2 (mol/kg)  =   6.432e-01
                         Temperature (┬░C)  = 200.00
                           Pressure (atm)  = 580.00
                  Electrical balance (eq)  =   3.604e-10
 Percent error, 100*(Cat-|An|)/(Cat+|An|)  =   0.00
                               Iterations  =   7
                         Gamma iterations  =   3
                      Osmotic coefficient  =   0.99676
                         Density of water  =   0.90188
                                  Total H  = 1.110124e+02
                                  Total O  = 5.680543e+01

----------------------------Distribution of species----------------------------

                                                    MacInnes  MacInnes
                                MacInnes       Log       Log       Log    mole V
   Species          Molality    Activity  Molality  Activity     Gamma   cm┬│/mol

   H+              2.203e-05   1.780e-05    -4.657    -4.750    -0.092      0.00
   OH-             9.059e-07   3.734e-07    -6.043    -6.428    -0.385     -9.91
   H2O             5.551e+01   8.873e-01     1.744    -0.052     0.000     19.98
C(4)          6.432e-01
   CO2             6.171e-01   9.143e-01    -0.210    -0.039     0.171     48.61
   HCO3-           2.616e-02   5.187e-03    -1.582    -2.285    -0.703     25.61
   CO3-2           4.258e-07   7.826e-09    -6.371    -8.106    -1.736     -8.55
Ca            1.307e-02
   Ca+2            1.307e-02   1.514e-03    -1.884    -2.820    -0.936    -16.55
Cl            3.001e+00
   Cl-             3.001e+00   1.259e+00     0.477     0.100    -0.377     13.37
Na            3.001e+00
   Na+             3.001e+00   1.770e+00     0.477     0.248    -0.229      3.74

------------------------------Saturation indices-------------------------------

  Phase               SI** log IAP   log K(473 K, 580 atm)

  Aragonite        -0.20    -10.93  -10.73  CaCO3
  Calcite          -0.00    -10.93  -10.93  CaCO3
  CO2(g)            2.32     -0.04   -2.35  CO2
  Gaylussite       -8.90    -18.80   -9.90  CaNa2(CO3)2:5H2O
  H2O(g)            1.23     -0.05   -1.28  H2O
  Halite           -0.91      0.35    1.26  NaCl
  Nahcolite        -2.14    -12.61  -10.46  NaHCO3
  Natron           -6.02     -8.13   -2.11  Na2CO3:10H2O
  Pirssonite       -9.32    -18.64   -9.32  Na2Ca(CO3)2:2H2O
  Portlandite     -10.72    -15.68   -4.95  Ca(OH)2
  Trona            -9.40    -20.32  -10.92  Na3H(CO3)2:2H2O

**For a gas, SI = log10(fugacity). Fugacity = pressure * phi / 1 atm.
  For ideal gases, phi = 1.

Reaction step 11.

Using solution 1.	
Using pure phase assemblage 1.	
Using reaction 1.	

Reaction 1.	

	  7.000e-02 moles of the following reaction have been added:

	                 Relative
	Reactant            moles

	CO2                  1.00000

	                 Relative
	Element             moles
	C                    1.00000
	O                    2.00000

-------------------------------Phase assemblage--------------------------------

                                                      Moles in assemblage
Phase               SI  log IAP  log K(T, P)   Initial       Final       Delta

Calcite          -0.00   -10.93    -10.93    9.987e+00   9.987e+00  -3.039e-04

-----------------------------Solution composition------------------------------

	Elements           Molality       Moles

	C                 7.135e-01   7.134e-01
	Ca                1.338e-02   1.337e-02
	Cl                3.001e+00   3.000e+00
	Na                3.001e+00   3.000e+00

----------------------------Description of solution----------------------------

                                       pH  =   4.719      Charge balance
                                       pe  =   4.000      Adjusted to redox equilibrium
      Specific Conductance (┬ĄS/cm, 200┬░C)  = 659146
                          Density (g/cm┬│)  =   1.01156
                               Volume (L)  =   1.19368
                        Viscosity (mPa s)  =   0.21974
                        Activity of water  =   0.886
                 Ionic strength (mol/kgw)  =   3.041e+00
                       Mass of water (kg)  =   9.998e-01
                 Total alkalinity (eq/kg)  =   2.675e-02
                       Total CO2 (mol/kg)  =   7.135e-01
                         Temperature (┬░C)  = 200.00
                           Pressure (atm)  = 580.00
                  Electrical balance (eq)  =   4.239e-10
 Percent error, 100*(Cat-|An|)/(Cat+|An|)  =   0.00
                               Iterations  =   7
                         Gamma iterations  =   3
                      Osmotic coefficient  =   1.00082
                         Density of water  =   0.90188
                                  Total H  = 1.110124e+02
                                  Total O  = 5.694634e+01

----------------------------Distribution of species----------------------------

                                                    MacInnes  MacInnes
                                MacInnes       Log       Log       Log    mole V
   Species          Molality    Activity  Molality  Activity     Gamma   cm┬│/mol

   H+              2.367e-05   1.912e-05    -4.626    -4.719    -0.093      0.00
   OH-             8.421e-07   3.471e-07    -6.075    -6.460    -0.385     -9.91
   H2O             5.551e+01   8.858e-01     1.744    -0.053     0.000     19.98
C(4)          7.135e-01
   CO2             6.868e-01   1.007e+00    -0.163     0.003     0.166     48.61
   HCO3-           2.677e-02   5.312e-03    -1.572    -2.275    -0.702     25.61
   CO3-2           4.061e-07   7.464e-09    -6.391    -8.127    -1.736     -8.55
Ca            1.338e-02
   Ca+2            1.338e-02   1.588e-03    -1.874    -2.799    -0.926    -16.55
Cl            3.001e+00
   Cl-             3.001e+00   1.259e+00     0.477     0.100    -0.377     13.37
Na            3.001e+00
   Na+             3.001e+00   1.790e+00     0.477     0.253    -0.224      3.74

------------------------------Saturation indices-------------------------------

  Phase               SI** log IAP   log K(473 K, 580 atm)

  Aragonite        -0.20    -10.93  -10.73  CaCO3
  Calcite          -0.00    -10.93  -10.93  CaCO3
  CO2(g)            2.36      0.00   -2.35  CO2
  Gaylussite       -8.91    -18.81   -9.90  CaNa2(CO3)2:5H2O
  H2O(g)            1.23     -0.05   -1.28  H2O
  Halite           -0.90      0.35    1.26  NaCl
  Nahcolite        -2.13    -12.59  -10.46  NaHCO3
  Natron           -6.04     -8.15   -2.11  Na2CO3:10H2O
  Pirssonite       -9.33    -18.65   -9.32  Na2Ca(CO3)2:2H2O
  Portlandite     -10.76    -15.72   -4.95  Ca(OH)2
  Trona            -9.40    -20.32  -10.92  Na3H(CO3)2:2H2O

**For a gas, SI = log10(fugacity). Fugacity = pressure * phi / 1 atm.
  For ideal gases, phi = 1.

------------------
End of simulation.
------------------

------------------------------------
Reading input data for simulation 2.
------------------------------------

