WARNING: Database file from DATABASE keyword is used; command line argument ignored.
   Input file: cc_P3
  Output file: cc_P3.out
Database file: ../database/phreeqc.dat

------------------
Reading data base.
------------------

	SOLUTION_MASTER_SPECIES
	SOLUTION_SPECIES
	PHASES
	GAS_BINARY_PARAMETERS
	EXCHANGE_MASTER_SPECIES
	EXCHANGE_SPECIES
	SURFACE_MASTER_SPECIES
	SURFACE_SPECIES
	MEAN_GAMMAS
	RATES
	END
------------------------------------
Reading input data for simulation 1.
------------------------------------

	DATABASE ../database/phreeqc.dat
	SELECTED_OUTPUT 101
	    file                 cc_P3_101.sel
	USER_PUNCH 101
	    headings Mu SC
	    start
	10 PUNCH STR_F$(MU, 20, 12)
	20 PUNCH STR_F$(SC, 20, 10)
	    end
	SOLUTION_SPECIES
	Ca+2 + CO3-2 + H+ = CaHCO3+
		log_k	-100 # remove this complex, data from Ellis, 1963 and Segnit et al. 1962.
	SOLUTION 1
	 pH 7 charge
	 pressure 9.87
	EQUILIBRIUM_PHASES
	 Calcite
	 CO2(g) 0.994
	GAS_PHASE
	 fixed_volume
	 volume 0.1
	 CO2(g) 0
	 H2O(g) 0
	REACTION_TEMPERATURE
	 1 110 in 20
	USER_GRAPH
	-headings tk #Ca_tot Ca+2 CaCO3 CaHCO3+ SI_arg
	 -plot_csv_file cc_p_CO2.dat
	 -connect_simulations false
	 -axis_scale x_axis 270 500
	 -axis_titles "Temperature / K" "Calcite solubility / (mol/kgw)"
	 10 graph_x tk
	 20 graph_y  tot("Ca"), # mol("Ca+2"), mol("CaCO3"), mol("CaHCO3+")
	END
-------------------------------------------
Beginning of initial solution calculations.
-------------------------------------------

Initial solution 1.	

-----------------------------Solution composition------------------------------

	Elements           Molality       Moles

	Pure water     

----------------------------Description of solution----------------------------

                                       pH  =   6.996      Charge balance
                                       pe  =   4.000    
      Specific Conductance (µS/cm,  25°C)  = 0
                          Density (g/cm³)  =   0.99744
                               Volume (L)  =   1.00256
                        Viscosity (mPa s)  =   0.88990
                        Activity of water  =   1.000
                 Ionic strength (mol/kgw)  =   1.010e-07
                       Mass of water (kg)  =   1.000e+00
                 Total alkalinity (eq/kg)  =   3.883e-17
                         Temperature (°C)  =  25.00
                           Pressure (atm)  =  9.87
                  Electrical balance (eq)  =  -3.883e-17
 Percent error, 100*(Cat-|An|)/(Cat+|An|)  =  -0.00
                               Iterations  =   2
                                  Total H  = 1.110124e+02
                                  Total O  = 5.550622e+01

----------------------------Distribution of species----------------------------

                                               Log       Log       Log    mole V
   Species          Molality    Activity  Molality  Activity     Gamma   cm³/mol

   OH-             1.010e-07   1.010e-07    -6.995    -6.996    -0.000     -4.10
   H+              1.010e-07   1.010e-07    -6.995    -6.996    -0.000      0.00
   H2O             5.551e+01   1.000e+00     1.744    -0.000     0.000     18.06
H(0)          1.437e-25
   H2              7.184e-26   7.184e-26   -25.144   -25.144     0.000     15.00
O(0)          0.000e+00
   O2              0.000e+00   0.000e+00   -42.079   -42.079     0.000     30.39

------------------------------Saturation indices-------------------------------

  Phase               SI** log IAP   log K(298 K,  10 atm)

  H2(g)           -22.04    -25.14   -3.10  H2
  H2O(g)           -1.50     -0.00    1.50  H2O
  O2(g)           -39.18    -42.08   -2.90  O2

**For a gas, SI = log10(fugacity). Fugacity = pressure * phi / 1 atm.
  For ideal gases, phi = 1.

-----------------------------------------
Beginning of batch-reaction calculations.
-----------------------------------------

Reaction step 1.

Using solution 1.	
Using pure phase assemblage 1.	
Using gas phase 1.	
Using temperature 1.	

-----------------------------------Gas phase-----------------------------------

Total pressure:  9.87      atmospheres          (Peng-Robinson calculation)
    Gas volume:   1.00e-01 liters
  Molar volume:   2.11e+00 liters/mole
   P * Vm / RT:  0.92658  (Compressibility Factor Z) 

                                                        Moles in gas
                                            ----------------------------------
Component         log P           P    phi     Initial       Final       Delta

CO2(g)             0.99   9.863e+00  0.931   0.000e+00   4.732e-02   4.732e-02
H2O(g)            -2.13   7.429e-03  0.886   0.000e+00   3.564e-05   3.564e-05

-------------------------------Phase assemblage--------------------------------

                                                      Moles in assemblage
Phase               SI  log IAP  log K(T, P)   Initial       Final       Delta

CO2(g)            0.96    -0.17     -1.13    1.000e+01   9.248e+00  -7.520e-01
Calcite           0.00    -8.30     -8.30    1.000e+01   9.967e+00  -3.329e-02

-----------------------------Solution composition------------------------------

	Elements           Molality       Moles

	C                 7.384e-01   7.379e-01
	Ca                3.331e-02   3.329e-02

----------------------------Description of solution----------------------------

                                       pH  =   5.459      Charge balance
                                       pe  =   0.039      Adjusted to redox equilibrium
      Specific Conductance (µS/cm,   1°C)  = 2373
                          Density (g/cm³)  =   1.01165
                               Volume (L)  =   1.02243
                        Viscosity (mPa s)  =   1.95025
                        Activity of water  =   0.987
                 Ionic strength (mol/kgw)  =   9.991e-02
                       Mass of water (kg)  =   9.994e-01
                 Total alkalinity (eq/kg)  =   6.662e-02
                       Total CO2 (mol/kg)  =   7.384e-01
                         Temperature (°C)  =   1.00
                           Pressure (atm)  =  9.87
                  Electrical balance (eq)  =  -9.834e-11
 Percent error, 100*(Cat-|An|)/(Cat+|An|)  =  -0.00
                               Iterations  =  47
                                  Total H  = 1.110124e+02
                                  Total O  = 5.701535e+01

----------------------------Distribution of species----------------------------

                                               Log       Log       Log    mole V
   Species          Molality    Activity  Molality  Activity     Gamma   cm³/mol

   H+              4.188e-06   3.478e-06    -5.378    -5.459    -0.081      0.00
   OH-             4.737e-10   3.641e-10    -9.325    -9.439    -0.114     -5.58
   H2O             5.551e+01   9.869e-01     1.744    -0.006     0.000     18.01
C(-4)         4.524e-17
   CH4             4.524e-17   4.630e-17   -16.344   -16.334     0.010     32.81
C(4)          7.384e-01
   CO2             6.685e-01   6.787e-01    -0.175    -0.168     0.007     33.55
   HCO3-           6.661e-02   5.301e-02    -1.176    -1.276    -0.099     22.17
   (CO2)2          1.637e-03   1.662e-03    -2.786    -2.779     0.007     66.25
   CaCO3           6.674e-06   6.829e-06    -5.176    -5.166     0.010    -14.63
   CO3-2           9.434e-07   3.759e-07    -6.025    -6.425    -0.400     -7.53
   CaHCO3+         0.000e+00   0.000e+00  -113.656  -113.760    -0.103     (0)  
Ca            3.331e-02
   Ca+2            3.330e-02   1.344e-02    -1.478    -1.872    -0.394    -18.21
   CaCO3           6.674e-06   6.829e-06    -5.176    -5.166     0.010    -14.63
   CaOH+           8.029e-10   6.330e-10    -9.095    -9.199    -0.103     (0)  
   CaHCO3+         0.000e+00   0.000e+00  -113.656  -113.760    -0.103     (0)  
H(0)          1.803e-14
   H2              9.016e-15   9.237e-15   -14.045   -14.034     0.010     12.45
O(0)          0.000e+00
   O2              0.000e+00   0.000e+00   -73.029   -73.019     0.010     27.66

------------------------------Saturation indices-------------------------------

  Phase               SI** log IAP   log K(274 K,  10 atm)

  Aragonite        -0.09     -8.30   -8.21  CaCO3
  Calcite           0.00     -8.30   -8.30  CaCO3
  CH4(g)          -13.84    -16.33   -2.50  CH4
  CO2(g)            0.96     -0.17   -1.13  CO2	 Pressure   9.9 atm, phi 0.931
  H2(g)           -11.00    -14.03   -3.03  H2
  H2O(g)           -2.18     -0.01    2.18  H2O	 Pressure   0.0 atm, phi 0.886
  O2(g)           -70.34    -73.02   -2.67  O2

**For a gas, SI = log10(fugacity). Fugacity = pressure * phi / 1 atm.
  For ideal gases, phi = 1.

Reaction step 2.

Using solution 1.	
Using pure phase assemblage 1.	
Using gas phase 1.	
Using temperature 1.	

-----------------------------------Gas phase-----------------------------------

Total pressure:  9.87      atmospheres          (Peng-Robinson calculation)
    Gas volume:   1.00e-01 liters
  Molar volume:   2.17e+00 liters/mole
   P * Vm / RT:  0.93118  (Compressibility Factor Z) 

                                                        Moles in gas
                                            ----------------------------------
Component         log P           P    phi     Initial       Final       Delta

CO2(g)             0.99   9.864e+00  0.935   0.000e+00   4.612e-02   4.612e-02
H2O(g)            -1.96   1.102e-02  0.892   0.000e+00   5.153e-05   5.153e-05

-------------------------------Phase assemblage--------------------------------

                                                      Moles in assemblage
Phase               SI  log IAP  log K(T, P)   Initial       Final       Delta

CO2(g)            0.96    -0.26     -1.23    1.000e+01   9.380e+00  -6.203e-01
Calcite          -0.00    -8.32     -8.32    1.000e+01   9.970e+00  -2.973e-02

-----------------------------Solution composition------------------------------

	Elements           Molality       Moles

	C                 6.042e-01   6.039e-01
	Ca                2.975e-02   2.973e-02

----------------------------Description of solution----------------------------

                                       pH  =   5.435      Charge balance
                                       pe  =   0.198      Adjusted to redox equilibrium
      Specific Conductance (µS/cm,   7°C)  = 2670
                          Density (g/cm³)  =   1.00966
                               Volume (L)  =   1.01840
                        Viscosity (mPa s)  =   1.57173
                        Activity of water  =   0.989
                 Ionic strength (mol/kgw)  =   8.923e-02
                       Mass of water (kg)  =   9.995e-01
                 Total alkalinity (eq/kg)  =   5.949e-02
                       Total CO2 (mol/kg)  =   6.042e-01
                         Temperature (°C)  =   6.74
                           Pressure (atm)  =  9.87
                  Electrical balance (eq)  =   1.689e-10
 Percent error, 100*(Cat-|An|)/(Cat+|An|)  =   0.00
                               Iterations  =  48
                                  Total H  = 1.110123e+02
                                  Total O  = 5.674367e+01

----------------------------Distribution of species----------------------------

                                               Log       Log       Log    mole V
   Species          Molality    Activity  Molality  Activity     Gamma   cm³/mol

   H+              4.400e-06   3.669e-06    -5.357    -5.435    -0.079      0.00
   OH-             7.680e-10   5.957e-10    -9.115    -9.225    -0.110     -4.92
   H2O             5.551e+01   9.893e-01     1.744    -0.005     0.000     18.01
C(-4)         4.252e-19
   CH4             4.252e-19   4.340e-19   -18.371   -18.362     0.009     33.61
C(4)          6.042e-01
   CO2             5.415e-01   5.489e-01    -0.266    -0.261     0.006     33.88
   HCO3-           5.948e-02   4.765e-02    -1.226    -1.322    -0.096     23.21
   (CO2)2          1.626e-03   1.648e-03    -2.789    -2.783     0.006     66.92
   CaCO3           6.263e-06   6.393e-06    -5.203    -5.194     0.009    -14.60
   CO3-2           9.461e-07   3.872e-07    -6.024    -6.412    -0.388     -6.07
   CaHCO3+         0.000e+00   0.000e+00  -113.661  -113.762    -0.101     (0)  
Ca            2.975e-02
   Ca+2            2.974e-02   1.230e-02    -1.527    -1.910    -0.383    -17.93
   CaCO3           6.263e-06   6.393e-06    -5.203    -5.194     0.009    -14.60
   CaOH+           6.940e-10   5.504e-10    -9.159    -9.259    -0.101     (0)  
   CaHCO3+         0.000e+00   0.000e+00  -113.661  -113.762    -0.101     (0)  
H(0)          9.046e-15
   H2              4.523e-15   4.622e-15   -14.345   -14.335     0.009     13.26
O(0)          0.000e+00
   O2              0.000e+00   0.000e+00   -70.200   -70.191     0.009     28.53

------------------------------Saturation indices-------------------------------

  Phase               SI** log IAP   log K(279 K,  10 atm)

  Aragonite        -0.09     -8.32   -8.23  CaCO3
  Calcite          -0.00     -8.32   -8.32  CaCO3
  CH4(g)          -15.77    -18.36   -2.59  CH4
  CO2(g)            0.96     -0.26   -1.23  CO2	 Pressure   9.9 atm, phi 0.935
  H2(g)           -11.28    -14.34   -3.05  H2
  H2O(g)           -2.01     -0.00    2.00  H2O	 Pressure   0.0 atm, phi 0.892
  O2(g)           -67.45    -70.19   -2.74  O2

**For a gas, SI = log10(fugacity). Fugacity = pressure * phi / 1 atm.
  For ideal gases, phi = 1.

Reaction step 3.

Using solution 1.	
Using pure phase assemblage 1.	
Using gas phase 1.	
Using temperature 1.	

-----------------------------------Gas phase-----------------------------------

Total pressure:  9.88      atmospheres          (Peng-Robinson calculation)
    Gas volume:   1.00e-01 liters
  Molar volume:   2.22e+00 liters/mole
   P * Vm / RT:  0.93539  (Compressibility Factor Z) 

                                                        Moles in gas
                                            ----------------------------------
Component         log P           P    phi     Initial       Final       Delta

CO2(g)             0.99   9.864e+00  0.939   0.000e+00   4.499e-02   4.499e-02
H2O(g)            -1.79   1.607e-02  0.898   0.000e+00   7.328e-05   7.328e-05

-------------------------------Phase assemblage--------------------------------

                                                      Moles in assemblage
Phase               SI  log IAP  log K(T, P)   Initial       Final       Delta

CO2(g)            0.97    -0.34     -1.31    1.000e+01   9.479e+00  -5.213e-01
Calcite          -0.00    -8.35     -8.35    1.000e+01   9.973e+00  -2.657e-02

-----------------------------Solution composition------------------------------

	Elements           Molality       Moles

	C                 5.032e-01   5.029e-01
	Ca                2.658e-02   2.657e-02

----------------------------Description of solution----------------------------

                                       pH  =   5.416      Charge balance
                                       pe  =   0.171      Adjusted to redox equilibrium
      Specific Conductance (µS/cm,  12°C)  = 2919
                          Density (g/cm³)  =   1.00767
                               Volume (L)  =   1.01583
                        Viscosity (mPa s)  =   1.30304
                        Activity of water  =   0.991
                 Ionic strength (mol/kgw)  =   7.974e-02
                       Mass of water (kg)  =   9.995e-01
                 Total alkalinity (eq/kg)  =   5.317e-02
                       Total CO2 (mol/kg)  =   5.032e-01
                         Temperature (°C)  =  12.47
                           Pressure (atm)  =  9.88
                  Electrical balance (eq)  =   1.943e-10
 Percent error, 100*(Cat-|An|)/(Cat+|An|)  =   0.00
                               Iterations  =  47
                                  Total H  = 1.110123e+02
                                  Total O  = 5.653855e+01

----------------------------Distribution of species----------------------------

                                               Log       Log       Log    mole V
   Species          Molality    Activity  Molality  Activity     Gamma   cm³/mol

   H+              4.580e-06   3.835e-06    -5.339    -5.416    -0.077      0.00
   OH-             1.218e-09   9.526e-10    -8.914    -9.021    -0.107     -4.44
   H2O             5.551e+01   9.910e-01     1.744    -0.004     0.000     18.02
C(-4)         1.228e-19
   CH4             1.228e-19   1.251e-19   -18.911   -18.903     0.008     34.28
C(4)          5.032e-01
   CO2             4.468e-01   4.522e-01    -0.350    -0.345     0.005     34.18
   HCO3-           5.316e-02   4.286e-02    -1.274    -1.368    -0.094     24.01
   (CO2)2          1.615e-03   1.635e-03    -2.792    -2.786     0.005     67.53
   CaCO3           6.046e-06   6.159e-06    -5.218    -5.211     0.008    -14.57
   CO3-2           9.377e-07   3.939e-07    -6.028    -6.405    -0.377     -4.99
   CaHCO3+         0.000e+00   0.000e+00  -113.675  -113.773    -0.098     (0)  
Ca            2.658e-02
   Ca+2            2.658e-02   1.126e-02    -1.576    -1.949    -0.373    -17.73
   CaCO3           6.046e-06   6.159e-06    -5.218    -5.211     0.008    -14.57
   CaOH+           6.052e-10   4.829e-10    -9.218    -9.316    -0.098     (0)  
   CaHCO3+         0.000e+00   0.000e+00  -113.675  -113.773    -0.098     (0)  
H(0)          1.055e-14
   H2              5.273e-15   5.376e-15   -14.278   -14.270     0.008     13.91
O(0)          0.000e+00
   O2              0.000e+00   0.000e+00   -68.196   -68.188     0.008     29.23

------------------------------Saturation indices-------------------------------

  Phase               SI** log IAP   log K(285 K,  10 atm)

  Aragonite        -0.10     -8.35   -8.26  CaCO3
  Calcite          -0.00     -8.35   -8.35  CaCO3
  CH4(g)          -16.23    -18.90   -2.67  CH4
  CO2(g)            0.97     -0.34   -1.31  CO2	 Pressure   9.9 atm, phi 0.939
  H2(g)           -11.20    -14.27   -3.07  H2
  H2O(g)           -1.84     -0.00    1.84  H2O	 Pressure   0.0 atm, phi 0.898
  O2(g)           -65.39    -68.19   -2.79  O2

**For a gas, SI = log10(fugacity). Fugacity = pressure * phi / 1 atm.
  For ideal gases, phi = 1.

Reaction step 4.

Using solution 1.	
Using pure phase assemblage 1.	
Using gas phase 1.	
Using temperature 1.	

-----------------------------------Gas phase-----------------------------------

Total pressure:  9.89      atmospheres          (Peng-Robinson calculation)
    Gas volume:   1.00e-01 liters
  Molar volume:   2.27e+00 liters/mole
   P * Vm / RT:  0.93927  (Compressibility Factor Z) 

                                                        Moles in gas
                                            ----------------------------------
Component         log P           P    phi     Initial       Final       Delta

CO2(g)             0.99   9.864e+00  0.942   0.000e+00   4.393e-02   4.393e-02
H2O(g)            -1.64   2.304e-02  0.903   0.000e+00   1.026e-04   1.026e-04

-------------------------------Phase assemblage--------------------------------

                                                      Moles in assemblage
Phase               SI  log IAP  log K(T, P)   Initial       Final       Delta

CO2(g)            0.97    -0.42     -1.39    1.000e+01   9.554e+00  -4.456e-01
Calcite          -0.00    -8.39     -8.39    1.000e+01   9.976e+00  -2.376e-02

-----------------------------Solution composition------------------------------

	Elements           Molality       Moles

	C                 4.256e-01   4.254e-01
	Ca                2.377e-02   2.376e-02

----------------------------Description of solution----------------------------

                                       pH  =   5.401      Charge balance
                                       pe  =   0.179      Adjusted to redox equilibrium
      Specific Conductance (µS/cm,  18°C)  = 3122
                          Density (g/cm³)  =   1.00559
                               Volume (L)  =   1.01438
                        Viscosity (mPa s)  =   1.10397
                        Activity of water  =   0.992
                 Ionic strength (mol/kgw)  =   7.129e-02
                       Mass of water (kg)  =   9.996e-01
                 Total alkalinity (eq/kg)  =   4.754e-02
                       Total CO2 (mol/kg)  =   4.256e-01
                         Temperature (°C)  =  18.21
                           Pressure (atm)  =  9.89
                  Electrical balance (eq)  =   2.097e-10
 Percent error, 100*(Cat-|An|)/(Cat+|An|)  =   0.00
                               Iterations  =  46
                                  Total H  = 1.110122e+02
                                  Total O  = 5.638070e+01

----------------------------Distribution of species----------------------------

                                               Log       Log       Log    mole V
   Species          Molality    Activity  Molality  Activity     Gamma   cm³/mol

   H+              4.729e-06   3.976e-06    -5.325    -5.401    -0.075      0.00
   OH-             1.890e-09   1.491e-09    -8.724    -8.827    -0.103     -4.09
   H2O             5.551e+01   9.924e-01     1.744    -0.003     0.000     18.03
C(-4)         1.827e-20
   CH4             1.827e-20   1.857e-20   -19.738   -19.731     0.007     34.86
C(4)          4.256e-01
   CO2             3.749e-01   3.789e-01    -0.426    -0.421     0.005     34.46
   HCO3-           4.753e-02   3.856e-02    -1.323    -1.414    -0.091     24.62
   (CO2)2          1.603e-03   1.620e-03    -2.795    -2.790     0.005     68.09
   CaCO3           5.971e-06   6.070e-06    -5.224    -5.217     0.007    -14.55
   CO3-2           9.189e-07   3.959e-07    -6.037    -6.402    -0.366     -4.19
   CaHCO3+         0.000e+00   0.000e+00  -113.698  -113.793    -0.095     (0)  
Ca            2.377e-02
   Ca+2            2.376e-02   1.031e-02    -1.624    -1.987    -0.363    -17.59
   CaCO3           5.971e-06   6.070e-06    -5.224    -5.217     0.007    -14.55
   CaOH+           5.319e-10   4.270e-10    -9.274    -9.370    -0.095     (0)  
   CaHCO3+         0.000e+00   0.000e+00  -113.698  -113.793    -0.095     (0)  
H(0)          1.029e-14
   H2              5.143e-15   5.232e-15   -14.289   -14.281     0.007     14.46
O(0)          0.000e+00
   O2              0.000e+00   0.000e+00   -66.127   -66.120     0.007     29.81

------------------------------Saturation indices-------------------------------

  Phase               SI** log IAP   log K(291 K,  10 atm)

  Aragonite        -0.10     -8.39   -8.29  CaCO3
  Calcite          -0.00     -8.39   -8.39  CaCO3
  CH4(g)          -16.99    -19.73   -2.74  CH4
  CO2(g)            0.97     -0.42   -1.39  CO2	 Pressure   9.9 atm, phi 0.942
  H2(g)           -11.19    -14.28   -3.09  H2
  H2O(g)           -1.68     -0.00    1.68  H2O	 Pressure   0.0 atm, phi 0.903
  O2(g)           -63.27    -66.12   -2.84  O2

**For a gas, SI = log10(fugacity). Fugacity = pressure * phi / 1 atm.
  For ideal gases, phi = 1.

Reaction step 5.

Using solution 1.	
Using pure phase assemblage 1.	
Using gas phase 1.	
Using temperature 1.	

-----------------------------------Gas phase-----------------------------------

Total pressure:  9.90      atmospheres          (Peng-Robinson calculation)
    Gas volume:   1.00e-01 liters
  Molar volume:   2.32e+00 liters/mole
   P * Vm / RT:  0.94282  (Compressibility Factor Z) 

                                                        Moles in gas
                                            ----------------------------------
Component         log P           P    phi     Initial       Final       Delta

CO2(g)             0.99   9.865e+00  0.945   0.000e+00   4.292e-02   4.292e-02
H2O(g)            -1.49   3.253e-02  0.907   0.000e+00   1.415e-04   1.415e-04

-------------------------------Phase assemblage--------------------------------

                                                      Moles in assemblage
Phase               SI  log IAP  log K(T, P)   Initial       Final       Delta

CO2(g)            0.97    -0.49     -1.46    1.000e+01   9.613e+00  -3.866e-01
Calcite          -0.00    -8.43     -8.43    1.000e+01   9.979e+00  -2.126e-02

-----------------------------Solution composition------------------------------

	Elements           Molality       Moles

	C                 3.651e-01   3.649e-01
	Ca                2.127e-02   2.126e-02

----------------------------Description of solution----------------------------

                                       pH  =   5.388      Charge balance
                                       pe  =   0.177      Adjusted to redox equilibrium
      Specific Conductance (µS/cm,  24°C)  = 3281
                          Density (g/cm³)  =   1.00340
                               Volume (L)  =   1.01380
                        Viscosity (mPa s)  =   0.95139
                        Activity of water  =   0.993
                 Ionic strength (mol/kgw)  =   6.379e-02
                       Mass of water (kg)  =   9.996e-01
                 Total alkalinity (eq/kg)  =   4.253e-02
                       Total CO2 (mol/kg)  =   3.651e-01
                         Temperature (°C)  =  23.95
                           Pressure (atm)  =  9.90
                  Electrical balance (eq)  =   2.162e-10
 Percent error, 100*(Cat-|An|)/(Cat+|An|)  =   0.00
                               Iterations  =  45
                                  Total H  = 1.110122e+02
                                  Total O  = 5.625716e+01

----------------------------Distribution of species----------------------------

                                               Log       Log       Log    mole V
   Species          Molality    Activity  Molality  Activity     Gamma   cm³/mol

   H+              4.849e-06   4.093e-06    -5.314    -5.388    -0.074      0.00
   OH-             2.873e-09   2.285e-09    -8.542    -8.641    -0.100     -3.84
   H2O             5.551e+01   9.935e-01     1.744    -0.003     0.000     18.06
C(-4)         3.260e-21
   CH4             3.260e-21   3.309e-21   -20.487   -20.480     0.006     35.38
C(4)          3.651e-01
   CO2             3.193e-01   3.225e-01    -0.496    -0.492     0.004     34.74
   HCO3-           4.252e-02   3.470e-02    -1.371    -1.460    -0.088     25.10
   (CO2)2          1.587e-03   1.602e-03    -2.799    -2.795     0.004     68.63
   CaCO3           6.000e-06   6.089e-06    -5.222    -5.215     0.006    -14.54
   CO3-2           8.908e-07   3.932e-07    -6.050    -6.405    -0.355     -3.61
   CaHCO3+         0.000e+00   0.000e+00  -113.729  -113.822    -0.093     (0)  
Ca            2.127e-02
   Ca+2            2.126e-02   9.433e-03    -1.672    -2.025    -0.353    -17.51
   CaCO3           6.000e-06   6.089e-06    -5.222    -5.215     0.006    -14.54
   CaOH+           4.707e-10   3.801e-10    -9.327    -9.420    -0.093     (0)  
   CaHCO3+         0.000e+00   0.000e+00  -113.729  -113.822    -0.093     (0)  
H(0)          1.037e-14
   H2              5.187e-15   5.268e-15   -14.285   -14.278     0.007     14.92
O(0)          0.000e+00
   O2              0.000e+00   0.000e+00   -64.172   -64.166     0.006     30.30

------------------------------Saturation indices-------------------------------

  Phase               SI** log IAP   log K(297 K,  10 atm)

  Aragonite        -0.11     -8.43   -8.32  CaCO3
  Calcite          -0.00     -8.43   -8.43  CaCO3
  CH4(g)          -17.68    -20.48   -2.80  CH4
  CO2(g)            0.97     -0.49   -1.46  CO2	 Pressure   9.9 atm, phi 0.945
  H2(g)           -11.18    -14.28   -3.10  H2
  H2O(g)           -1.53     -0.00    1.53  H2O	 Pressure   0.0 atm, phi 0.907
  O2(g)           -61.28    -64.17   -2.89  O2

**For a gas, SI = log10(fugacity). Fugacity = pressure * phi / 1 atm.
  For ideal gases, phi = 1.

Reaction step 6.

Using solution 1.	
Using pure phase assemblage 1.	
Using gas phase 1.	
Using temperature 1.	

-----------------------------------Gas phase-----------------------------------

Total pressure:  9.91      atmospheres          (Peng-Robinson calculation)
    Gas volume:   1.00e-01 liters
  Molar volume:   2.37e+00 liters/mole
   P * Vm / RT:  0.94609  (Compressibility Factor Z) 

                                                        Moles in gas
                                            ----------------------------------
Component         log P           P    phi     Initial       Final       Delta

CO2(g)             0.99   9.865e+00  0.948   0.000e+00   4.196e-02   4.196e-02
H2O(g)            -1.34   4.529e-02  0.912   0.000e+00   1.926e-04   1.926e-04

-------------------------------Phase assemblage--------------------------------

                                                      Moles in assemblage
Phase               SI  log IAP  log K(T, P)   Initial       Final       Delta

CO2(g)            0.97    -0.56     -1.53    1.000e+01   9.660e+00  -3.399e-01
Calcite          -0.00    -8.48     -8.48    1.000e+01   9.981e+00  -1.903e-02

-----------------------------Solution composition------------------------------

	Elements           Molality       Moles

	C                 3.171e-01   3.170e-01
	Ca                1.904e-02   1.903e-02

----------------------------Description of solution----------------------------

                                       pH  =   5.378      Charge balance
                                       pe  =   0.163      Adjusted to redox equilibrium
      Specific Conductance (µS/cm,  30°C)  = 3400
                          Density (g/cm³)  =   1.00107
                               Volume (L)  =   1.01393
                        Viscosity (mPa s)  =   0.83121
                        Activity of water  =   0.994
                 Ionic strength (mol/kgw)  =   5.710e-02
                       Mass of water (kg)  =   9.997e-01
                 Total alkalinity (eq/kg)  =   3.807e-02
                       Total CO2 (mol/kg)  =   3.171e-01
                         Temperature (°C)  =  29.68
                           Pressure (atm)  =  9.91
                  Electrical balance (eq)  =   2.436e-10
 Percent error, 100*(Cat-|An|)/(Cat+|An|)  =   0.00
                               Iterations  =  44
                                  Total H  = 1.110120e+02
                                  Total O  = 5.615896e+01

----------------------------Distribution of species----------------------------

                                               Log       Log       Log    mole V
   Species          Molality    Activity  Molality  Activity     Gamma   cm³/mol

   H+              4.943e-06   4.188e-06    -5.306    -5.378    -0.072      0.00
   OH-             4.285e-09   3.433e-09    -8.368    -8.464    -0.096     -3.67
   H2O             5.551e+01   9.943e-01     1.744    -0.002     0.000     18.09
C(-4)         7.337e-22
   CH4             7.337e-22   7.434e-22   -21.134   -21.129     0.006     35.85
C(4)          3.171e-01
   CO2             2.759e-01   2.783e-01    -0.559    -0.556     0.004     35.00
   HCO3-           3.806e-02   3.124e-02    -1.419    -1.505    -0.086     25.46
   (CO2)2          1.566e-03   1.580e-03    -2.805    -2.801     0.004     69.16
   CaCO3           6.107e-06   6.188e-06    -5.214    -5.208     0.006    -14.52
   CO3-2           8.544e-07   3.863e-07    -6.068    -6.413    -0.345     -3.22
   CaHCO3+         0.000e+00   0.000e+00  -113.768  -113.858    -0.090     (0)  
Ca            1.904e-02
   Ca+2            1.903e-02   8.636e-03    -1.721    -2.064    -0.343    -17.47
   CaCO3           6.107e-06   6.188e-06    -5.214    -5.208     0.006    -14.52
   CaOH+           4.190e-10   3.403e-10    -9.378    -9.468    -0.090     (0)  
   CaHCO3+         0.000e+00   0.000e+00  -113.768  -113.858    -0.090     (0)  
H(0)          1.096e-14
   H2              5.480e-15   5.556e-15   -14.261   -14.255     0.006     15.32
O(0)          0.000e+00
   O2              0.000e+00   0.000e+00   -62.340   -62.334     0.006     30.73

------------------------------Saturation indices-------------------------------

  Phase               SI** log IAP   log K(302 K,  10 atm)

  Aragonite        -0.12     -8.48   -8.36  CaCO3
  Calcite          -0.00     -8.48   -8.48  CaCO3
  CH4(g)          -18.28    -21.13   -2.85  CH4
  CO2(g)            0.97     -0.56   -1.53  CO2	 Pressure   9.9 atm, phi 0.948
  H2(g)           -11.15    -14.26   -3.11  H2
  H2O(g)           -1.38     -0.00    1.38  H2O	 Pressure   0.0 atm, phi 0.912
  O2(g)           -59.40    -62.33   -2.93  O2

**For a gas, SI = log10(fugacity). Fugacity = pressure * phi / 1 atm.
  For ideal gases, phi = 1.

Reaction step 7.

Using solution 1.	
Using pure phase assemblage 1.	
Using gas phase 1.	
Using temperature 1.	

-----------------------------------Gas phase-----------------------------------

Total pressure:  9.93      atmospheres          (Peng-Robinson calculation)
    Gas volume:   1.00e-01 liters
  Molar volume:   2.42e+00 liters/mole
   P * Vm / RT:  0.94910  (Compressibility Factor Z) 

                                                        Moles in gas
                                            ----------------------------------
Component         log P           P    phi     Initial       Final       Delta

CO2(g)             0.99   9.866e+00  0.951   0.000e+00   4.105e-02   4.105e-02
H2O(g)            -1.21   6.219e-02  0.915   0.000e+00   2.588e-04   2.588e-04

-------------------------------Phase assemblage--------------------------------

                                                      Moles in assemblage
Phase               SI  log IAP  log K(T, P)   Initial       Final       Delta

CO2(g)            0.97    -0.61     -1.59    1.000e+01   9.698e+00  -3.024e-01
Calcite          -0.00    -8.53     -8.53    1.000e+01   9.983e+00  -1.705e-02

-----------------------------Solution composition------------------------------

	Elements           Molality       Moles

	C                 2.785e-01   2.784e-01
	Ca                1.705e-02   1.705e-02

----------------------------Description of solution----------------------------

                                       pH  =   5.370      Charge balance
                                       pe  =   0.164      Adjusted to redox equilibrium
      Specific Conductance (µS/cm,  35°C)  = 3481
                          Density (g/cm³)  =   0.99859
                               Volume (L)  =   1.01464
                        Viscosity (mPa s)  =   0.73446
                        Activity of water  =   0.995
                 Ionic strength (mol/kgw)  =   5.114e-02
                       Mass of water (kg)  =   9.997e-01
                 Total alkalinity (eq/kg)  =   3.410e-02
                       Total CO2 (mol/kg)  =   2.785e-01
                         Temperature (°C)  =  35.42
                           Pressure (atm)  =  9.93
                  Electrical balance (eq)  =   1.544e-10
 Percent error, 100*(Cat-|An|)/(Cat+|An|)  =   0.00
                               Iterations  =  44
                                  Total H  = 1.110119e+02
                                  Total O  = 5.607984e+01

----------------------------Distribution of species----------------------------

                                               Log       Log       Log    mole V
   Species          Molality    Activity  Molality  Activity     Gamma   cm³/mol

   H+              5.012e-06   4.264e-06    -5.300    -5.370    -0.070      0.00
   OH-             6.272e-09   5.062e-09    -8.203    -8.296    -0.093     -3.57
   H2O             5.551e+01   9.950e-01     1.744    -0.002     0.000     18.12
C(-4)         1.271e-22
   CH4             1.271e-22   1.286e-22   -21.896   -21.891     0.005     36.29
C(4)          2.785e-01
   CO2             2.413e-01   2.432e-01    -0.617    -0.614     0.003     35.26
   HCO3-           3.409e-02   2.814e-02    -1.467    -1.551    -0.083     25.72
   (CO2)2          1.540e-03   1.552e-03    -2.813    -2.809     0.003     69.69
   CaCO3           6.268e-06   6.342e-06    -5.203    -5.198     0.005    -14.51
   CO3-2           8.114e-07   3.753e-07    -6.091    -6.426    -0.335     -2.97
   CaHCO3+         0.000e+00   0.000e+00  -113.813  -113.901    -0.088     (0)  
Ca            1.705e-02
   Ca+2            1.704e-02   7.905e-03    -1.768    -2.102    -0.334    -17.46
   CaCO3           6.268e-06   6.342e-06    -5.203    -5.198     0.005    -14.51
   CaOH+           3.749e-10   3.062e-10    -9.426    -9.514    -0.088     (0)  
   CaHCO3+         0.000e+00   0.000e+00  -113.813  -113.901    -0.088     (0)  
H(0)          1.073e-14
   H2              5.364e-15   5.431e-15   -14.271   -14.265     0.005     15.67
O(0)          0.000e+00
   O2              0.000e+00   0.000e+00   -60.520   -60.515     0.005     31.11

------------------------------Saturation indices-------------------------------

  Phase               SI** log IAP   log K(308 K,  10 atm)

  Aragonite        -0.13     -8.53   -8.40  CaCO3
  Calcite          -0.00     -8.53   -8.53  CaCO3
  CH4(g)          -19.00    -21.89   -2.89  CH4
  CO2(g)            0.97     -0.61   -1.59  CO2	 Pressure   9.9 atm, phi 0.951
  H2(g)           -11.15    -14.27   -3.12  H2
  H2O(g)           -1.24     -0.00    1.24  H2O	 Pressure   0.1 atm, phi 0.915
  O2(g)           -57.55    -60.51   -2.96  O2

**For a gas, SI = log10(fugacity). Fugacity = pressure * phi / 1 atm.
  For ideal gases, phi = 1.

Reaction step 8.

Using solution 1.	
Using pure phase assemblage 1.	
Using gas phase 1.	
Using temperature 1.	

-----------------------------------Gas phase-----------------------------------

Total pressure:  9.95      atmospheres          (Peng-Robinson calculation)
    Gas volume:   1.00e-01 liters
  Molar volume:   2.47e+00 liters/mole
   P * Vm / RT:  0.95184  (Compressibility Factor Z) 

                                                        Moles in gas
                                            ----------------------------------
Component         log P           P    phi     Initial       Final       Delta

CO2(g)             0.99   9.867e+00  0.954   0.000e+00   4.019e-02   4.019e-02
H2O(g)            -1.07   8.432e-02  0.919   0.000e+00   3.434e-04   3.434e-04

-------------------------------Phase assemblage--------------------------------

                                                      Moles in assemblage
Phase               SI  log IAP  log K(T, P)   Initial       Final       Delta

CO2(g)            0.97    -0.67     -1.64    1.000e+01   9.728e+00  -2.720e-01
Calcite          -0.00    -8.58     -8.58    1.000e+01   9.985e+00  -1.527e-02

-----------------------------Solution composition------------------------------

	Elements           Molality       Moles

	C                 2.471e-01   2.471e-01
	Ca                1.528e-02   1.527e-02

----------------------------Description of solution----------------------------

                                       pH  =   5.364      Charge balance
                                       pe  =   0.152      Adjusted to redox equilibrium
      Specific Conductance (µS/cm,  41°C)  = 3529
                          Density (g/cm³)  =   0.99595
                               Volume (L)  =   1.01584
                        Viscosity (mPa s)  =   0.65516
                        Activity of water  =   0.996
                 Ionic strength (mol/kgw)  =   4.582e-02
                       Mass of water (kg)  =   9.997e-01
                 Total alkalinity (eq/kg)  =   3.056e-02
                       Total CO2 (mol/kg)  =   2.471e-01
                         Temperature (°C)  =  41.16
                           Pressure (atm)  =  9.95
                  Electrical balance (eq)  =   1.773e-10
 Percent error, 100*(Cat-|An|)/(Cat+|An|)  =   0.00
                               Iterations  =  43
                                  Total H  = 1.110117e+02
                                  Total O  = 5.601530e+01

----------------------------Distribution of species----------------------------

                                               Log       Log       Log    mole V
   Species          Molality    Activity  Molality  Activity     Gamma   cm³/mol

   H+              5.061e-06   4.321e-06    -5.296    -5.364    -0.069      0.00
   OH-             9.019e-09   7.330e-09    -8.045    -8.135    -0.090     -3.53
   H2O             5.551e+01   9.956e-01     1.744    -0.002     0.000     18.16
C(-4)         2.878e-23
   CH4             2.878e-23   2.909e-23   -22.541   -22.536     0.005     36.71
C(4)          2.471e-01
   CO2             2.136e-01   2.151e-01    -0.670    -0.667     0.003     35.53
   HCO3-           3.055e-02   2.536e-02    -1.515    -1.596    -0.081     25.91
   (CO2)2          1.507e-03   1.518e-03    -2.822    -2.819     0.003     70.23
   CaCO3           6.464e-06   6.532e-06    -5.190    -5.185     0.005    -14.49
   CO3-2           7.631e-07   3.610e-07    -6.117    -6.443    -0.325     -2.85
   CaHCO3+         0.000e+00   0.000e+00  -113.865  -113.950    -0.085     (0)  
Ca            1.528e-02
   Ca+2            1.527e-02   7.237e-03    -1.816    -2.140    -0.324    -17.48
   CaCO3           6.464e-06   6.532e-06    -5.190    -5.185     0.005    -14.49
   CaOH+           3.369e-10   2.767e-10    -9.473    -9.558    -0.085     (0)  
   CaHCO3+         0.000e+00   0.000e+00  -113.865  -113.950    -0.085     (0)  
H(0)          1.111e-14
   H2              5.554e-15   5.616e-15   -14.255   -14.251     0.005     15.99
O(0)          0.000e+00
   O2              0.000e+00   0.000e+00   -58.825   -58.820     0.005     31.45

------------------------------Saturation indices-------------------------------

  Phase               SI** log IAP   log K(314 K,  10 atm)

  Aragonite        -0.14     -8.58   -8.45  CaCO3
  Calcite          -0.00     -8.58   -8.58  CaCO3
  CH4(g)          -19.61    -22.54   -2.92  CH4
  CO2(g)            0.97     -0.67   -1.64  CO2	 Pressure   9.9 atm, phi 0.954
  H2(g)           -11.13    -14.25   -3.12  H2
  H2O(g)           -1.11     -0.00    1.11  H2O	 Pressure   0.1 atm, phi 0.919
  O2(g)           -55.82    -58.82   -3.00  O2

**For a gas, SI = log10(fugacity). Fugacity = pressure * phi / 1 atm.
  For ideal gases, phi = 1.

Reaction step 9.

Using solution 1.	
Using pure phase assemblage 1.	
Using gas phase 1.	
Using temperature 1.	

-----------------------------------Gas phase-----------------------------------

Total pressure:  9.98      atmospheres          (Peng-Robinson calculation)
    Gas volume:   1.00e-01 liters
  Molar volume:   2.51e+00 liters/mole
   P * Vm / RT:  0.95436  (Compressibility Factor Z) 

                                                        Moles in gas
                                            ----------------------------------
Component         log P           P    phi     Initial       Final       Delta

CO2(g)             0.99   9.868e+00  0.956   0.000e+00   3.937e-02   3.937e-02
H2O(g)            -0.95   1.129e-01  0.922   0.000e+00   4.506e-04   4.506e-04

-------------------------------Phase assemblage--------------------------------

                                                      Moles in assemblage
Phase               SI  log IAP  log K(T, P)   Initial       Final       Delta

CO2(g)            0.97    -0.72     -1.69    1.000e+01   9.753e+00  -2.470e-01
Calcite          -0.00    -8.64     -8.64    1.000e+01   9.986e+00  -1.369e-02

-----------------------------Solution composition------------------------------

	Elements           Molality       Moles

	C                 2.214e-01   2.213e-01
	Ca                1.370e-02   1.369e-02

----------------------------Description of solution----------------------------

                                       pH  =   5.360      Charge balance
                                       pe  =   0.141      Adjusted to redox equilibrium
      Specific Conductance (µS/cm,  47°C)  = 3547
                          Density (g/cm³)  =   0.99315
                               Volume (L)  =   1.01747
                        Viscosity (mPa s)  =   0.58918
                        Activity of water  =   0.996
                 Ionic strength (mol/kgw)  =   4.108e-02
                       Mass of water (kg)  =   9.997e-01
                 Total alkalinity (eq/kg)  =   2.739e-02
                       Total CO2 (mol/kg)  =   2.214e-01
                         Temperature (°C)  =  46.89
                           Pressure (atm)  =  9.98
                  Electrical balance (eq)  =   2.163e-10
 Percent error, 100*(Cat-|An|)/(Cat+|An|)  =   0.00
                               Iterations  =  42
                                  Total H  = 1.110115e+02
                                  Total O  = 5.596207e+01

----------------------------Distribution of species----------------------------

                                               Log       Log       Log    mole V
   Species          Molality    Activity  Molality  Activity     Gamma   cm³/mol

   H+              5.091e-06   4.363e-06    -5.293    -5.360    -0.067      0.00
   OH-             1.275e-08   1.043e-08    -7.894    -7.982    -0.087     -3.54
   H2O             5.551e+01   9.960e-01     1.744    -0.002     0.000     18.20
C(-4)         6.417e-24
   CH4             6.417e-24   6.478e-24   -23.193   -23.189     0.004     37.12
C(4)          2.214e-01
   CO2             1.910e-01   1.922e-01    -0.719    -0.716     0.003     35.81
   HCO3-           2.739e-02   2.285e-02    -1.562    -1.641    -0.079     26.03
   (CO2)2          1.468e-03   1.477e-03    -2.833    -2.831     0.003     70.78
   CaCO3           6.675e-06   6.738e-06    -5.176    -5.171     0.004    -14.48
   CO3-2           7.111e-07   3.437e-07    -6.148    -6.464    -0.316     -2.85
   CaHCO3+         0.000e+00   0.000e+00  -113.923  -114.006    -0.083     (0)  
Ca            1.370e-02
   Ca+2            1.369e-02   6.624e-03    -1.864    -2.179    -0.315    -17.53
   CaCO3           6.675e-06   6.738e-06    -5.176    -5.171     0.004    -14.48
   CaOH+           3.038e-10   2.510e-10    -9.517    -9.600    -0.083     (0)  
   CaHCO3+         0.000e+00   0.000e+00  -113.923  -114.006    -0.083     (0)  
H(0)          1.134e-14
   H2              5.671e-15   5.727e-15   -14.246   -14.242     0.004     16.28
O(0)          0.000e+00
   O2              0.000e+00   0.000e+00   -57.190   -57.186     0.004     31.75

------------------------------Saturation indices-------------------------------

  Phase               SI** log IAP   log K(320 K,  10 atm)

  Aragonite        -0.14     -8.64   -8.50  CaCO3
  Calcite          -0.00     -8.64   -8.64  CaCO3
  CH4(g)          -20.24    -23.19   -2.95  CH4
  CO2(g)            0.97     -0.72   -1.69  CO2	 Pressure   9.9 atm, phi 0.956
  H2(g)           -11.11    -14.24   -3.13  H2
  H2O(g)           -0.98     -0.00    0.98  H2O	 Pressure   0.1 atm, phi 0.922
  O2(g)           -54.16    -57.19   -3.02  O2

**For a gas, SI = log10(fugacity). Fugacity = pressure * phi / 1 atm.
  For ideal gases, phi = 1.

Reaction step 10.

Using solution 1.	
Using pure phase assemblage 1.	
Using gas phase 1.	
Using temperature 1.	

-----------------------------------Gas phase-----------------------------------

Total pressure: 10.02      atmospheres          (Peng-Robinson calculation)
    Gas volume:   1.00e-01 liters
  Molar volume:   2.55e+00 liters/mole
   P * Vm / RT:  0.95664  (Compressibility Factor Z) 

                                                        Moles in gas
                                            ----------------------------------
Component         log P           P    phi     Initial       Final       Delta

CO2(g)             0.99   9.869e+00  0.958   0.000e+00   3.859e-02   3.859e-02
H2O(g)            -0.83   1.496e-01  0.925   0.000e+00   5.849e-04   5.849e-04

-------------------------------Phase assemblage--------------------------------

                                                      Moles in assemblage
Phase               SI  log IAP  log K(T, P)   Initial       Final       Delta

CO2(g)            0.98    -0.76     -1.74    1.000e+01   9.774e+00  -2.262e-01
Calcite          -0.00    -8.71     -8.71    1.000e+01   9.988e+00  -1.228e-02

-----------------------------Solution composition------------------------------

	Elements           Molality       Moles

	C                 2.000e-01   1.999e-01
	Ca                1.228e-02   1.228e-02

----------------------------Description of solution----------------------------

                                       pH  =   5.357      Charge balance
                                       pe  =   0.148      Adjusted to redox equilibrium
      Specific Conductance (µS/cm,  53°C)  = 3538
                          Density (g/cm³)  =   0.99019
                               Volume (L)  =   1.01947
                        Viscosity (mPa s)  =   0.53360
                        Activity of water  =   0.996
                 Ionic strength (mol/kgw)  =   3.684e-02
                       Mass of water (kg)  =   9.998e-01
                 Total alkalinity (eq/kg)  =   2.457e-02
                       Total CO2 (mol/kg)  =   2.000e-01
                         Temperature (°C)  =  52.63
                           Pressure (atm)  = 10.02
                  Electrical balance (eq)  =   1.427e-10
 Percent error, 100*(Cat-|An|)/(Cat+|An|)  =   0.00
                               Iterations  =  42
                                  Total H  = 1.110113e+02
                                  Total O  = 5.591773e+01

----------------------------Distribution of species----------------------------

                                               Log       Log       Log    mole V
   Species          Molality    Activity  Molality  Activity     Gamma   cm³/mol

   H+              5.105e-06   4.390e-06    -5.292    -5.357    -0.065      0.00
   OH-             1.774e-08   1.461e-08    -7.751    -7.835    -0.084     -3.60
   H2O             5.551e+01   9.964e-01     1.744    -0.002     0.000     18.25
C(-4)         1.029e-24
   CH4             1.029e-24   1.037e-24   -23.988   -23.984     0.004     37.52
C(4)          2.000e-01
   CO2             1.725e-01   1.735e-01    -0.763    -0.761     0.002     36.09
   HCO3-           2.456e-02   2.060e-02    -1.610    -1.686    -0.076     26.09
   (CO2)2          1.423e-03   1.431e-03    -2.847    -2.845     0.002     71.35
   CaCO3           6.881e-06   6.940e-06    -5.162    -5.159     0.004    -14.47
   CO3-2           6.567e-07   3.242e-07    -6.183    -6.489    -0.307     -2.94
   CaHCO3+         0.000e+00   0.000e+00  -113.986  -114.067    -0.081     (0)  
Ca            1.228e-02
   Ca+2            1.228e-02   6.063e-03    -1.911    -2.217    -0.306    -17.60
   CaCO3           6.881e-06   6.940e-06    -5.162    -5.159     0.004    -14.47
   CaOH+           2.750e-10   2.284e-10    -9.561    -9.641    -0.081     (0)  
   CaHCO3+         0.000e+00   0.000e+00  -113.986  -114.067    -0.081     (0)  
H(0)          1.056e-14
   H2              5.280e-15   5.327e-15   -14.277   -14.273     0.004     16.54
O(0)          0.000e+00
   O2              0.000e+00   0.000e+00   -55.545   -55.541     0.004     32.03

------------------------------Saturation indices-------------------------------

  Phase               SI** log IAP   log K(325 K,  10 atm)

  Aragonite        -0.15     -8.71   -8.55  CaCO3
  Calcite          -0.00     -8.71   -8.71  CaCO3
  CH4(g)          -21.01    -23.98   -2.97  CH4
  CO2(g)            0.98     -0.76   -1.74  CO2	 Pressure   9.9 atm, phi 0.958
  H2(g)           -11.14    -14.27   -3.13  H2
  H2O(g)           -0.86     -0.00    0.86  H2O	 Pressure   0.1 atm, phi 0.925
  O2(g)           -52.50    -55.54   -3.04  O2

**For a gas, SI = log10(fugacity). Fugacity = pressure * phi / 1 atm.
  For ideal gases, phi = 1.

Reaction step 11.

Using solution 1.	
Using pure phase assemblage 1.	
Using gas phase 1.	
Using temperature 1.	

-----------------------------------Gas phase-----------------------------------

Total pressure: 10.07      atmospheres          (Peng-Robinson calculation)
    Gas volume:   1.00e-01 liters
  Molar volume:   2.59e+00 liters/mole
   P * Vm / RT:  0.95871  (Compressibility Factor Z) 

                                                        Moles in gas
                                            ----------------------------------
Component         log P           P    phi     Initial       Final       Delta

CO2(g)             0.99   9.871e+00  0.960   0.000e+00   3.785e-02   3.785e-02
H2O(g)            -0.71   1.960e-01  0.928   0.000e+00   7.515e-04   7.515e-04

-------------------------------Phase assemblage--------------------------------

                                                      Moles in assemblage
Phase               SI  log IAP  log K(T, P)   Initial       Final       Delta

CO2(g)            0.98    -0.80     -1.78    1.000e+01   9.791e+00  -2.088e-01
Calcite          -0.00    -8.77     -8.77    1.000e+01   9.989e+00  -1.102e-02

-----------------------------Solution composition------------------------------

	Elements           Molality       Moles

	C                 1.820e-01   1.820e-01
	Ca                1.102e-02   1.102e-02

----------------------------Description of solution----------------------------

                                       pH  =   5.356      Charge balance
                                       pe  =   0.139      Adjusted to redox equilibrium
      Specific Conductance (µS/cm,  58°C)  = 3505
                          Density (g/cm³)  =   0.98708
                               Volume (L)  =   1.02181
                        Viscosity (mPa s)  =   0.48628
                        Activity of water  =   0.997
                 Ionic strength (mol/kgw)  =   3.305e-02
                       Mass of water (kg)  =   9.998e-01
                 Total alkalinity (eq/kg)  =   2.204e-02
                       Total CO2 (mol/kg)  =   1.820e-01
                         Temperature (°C)  =  58.37
                           Pressure (atm)  = 10.07
                  Electrical balance (eq)  =   1.769e-10
 Percent error, 100*(Cat-|An|)/(Cat+|An|)  =   0.00
                               Iterations  =  41
                                  Total H  = 1.110109e+02
                                  Total O  = 5.588046e+01

----------------------------Distribution of species----------------------------

                                               Log       Log       Log    mole V
   Species          Molality    Activity  Molality  Activity     Gamma   cm³/mol

   H+              5.104e-06   4.405e-06    -5.292    -5.356    -0.064      0.00
   OH-             2.429e-08   2.013e-08    -7.615    -7.696    -0.082     -3.71
   H2O             5.551e+01   9.967e-01     1.744    -0.001     0.000     18.30
C(-4)         2.321e-25
   CH4             2.321e-25   2.339e-25   -24.634   -24.631     0.003     37.91
C(4)          1.820e-01
   CO2             1.572e-01   1.580e-01    -0.803    -0.801     0.002     36.39
   HCO3-           2.203e-02   1.857e-02    -1.657    -1.731    -0.074     26.10
   (CO2)2          1.371e-03   1.378e-03    -2.863    -2.861     0.002     71.94
   CaCO3           7.062e-06   7.116e-06    -5.151    -5.148     0.003    -14.46
   CO3-2           6.013e-07   3.030e-07    -6.221    -6.519    -0.298     -3.14
   CaHCO3+         0.000e+00   0.000e+00  -114.055  -114.133    -0.078     (0)  
Ca            1.102e-02
   Ca+2            1.101e-02   5.548e-03    -1.958    -2.256    -0.298    -17.70
   CaCO3           7.062e-06   7.116e-06    -5.151    -5.148     0.003    -14.46
   CaOH+           2.495e-10   2.084e-10    -9.603    -9.681    -0.078     (0)  
   CaHCO3+         0.000e+00   0.000e+00  -114.055  -114.133    -0.078     (0)  
H(0)          1.061e-14
   H2              5.305e-15   5.348e-15   -14.275   -14.272     0.003     16.78
O(0)          0.000e+00
   O2              0.000e+00   0.000e+00   -54.033   -54.030     0.003     32.29

------------------------------Saturation indices-------------------------------

  Phase               SI** log IAP   log K(331 K,  10 atm)

  Aragonite        -0.16     -8.77   -8.61  CaCO3
  Calcite          -0.00     -8.77   -8.77  CaCO3
  CH4(g)          -21.64    -24.63   -2.99  CH4
  CO2(g)            0.98     -0.80   -1.78  CO2	 Pressure   9.9 atm, phi 0.960
  H2(g)           -11.14    -14.27   -3.13  H2
  H2O(g)           -0.74     -0.00    0.74  H2O	 Pressure   0.2 atm, phi 0.928
  O2(g)           -50.97    -54.03   -3.06  O2

**For a gas, SI = log10(fugacity). Fugacity = pressure * phi / 1 atm.
  For ideal gases, phi = 1.

Reaction step 12.

Using solution 1.	
Using pure phase assemblage 1.	
Using gas phase 1.	
Using temperature 1.	

-----------------------------------Gas phase-----------------------------------

Total pressure: 10.13      atmospheres          (Peng-Robinson calculation)
    Gas volume:   1.00e-01 liters
  Molar volume:   2.63e+00 liters/mole
   P * Vm / RT:  0.96056  (Compressibility Factor Z) 

                                                        Moles in gas
                                            ----------------------------------
Component         log P           P    phi     Initial       Final       Delta

CO2(g)             0.99   9.872e+00  0.962   0.000e+00   3.714e-02   3.714e-02
H2O(g)            -0.59   2.542e-01  0.930   0.000e+00   9.562e-04   9.562e-04

-------------------------------Phase assemblage--------------------------------

                                                      Moles in assemblage
Phase               SI  log IAP  log K(T, P)   Initial       Final       Delta

CO2(g)            0.98    -0.84     -1.82    1.000e+01   9.806e+00  -1.941e-01
Calcite          -0.00    -8.85     -8.85    1.000e+01   9.990e+00  -9.890e-03

-----------------------------Solution composition------------------------------

	Elements           Molality       Moles

	C                 1.669e-01   1.669e-01
	Ca                9.891e-03   9.890e-03

----------------------------Description of solution----------------------------

                                       pH  =   5.356      Charge balance
                                       pe  =   0.133      Adjusted to redox equilibrium
      Specific Conductance (µS/cm,  64°C)  = 3452
                          Density (g/cm³)  =   0.98382
                               Volume (L)  =   1.02446
                        Viscosity (mPa s)  =   0.44562
                        Activity of water  =   0.997
                 Ionic strength (mol/kgw)  =   2.966e-02
                       Mass of water (kg)  =   9.998e-01
                 Total alkalinity (eq/kg)  =   1.978e-02
                       Total CO2 (mol/kg)  =   1.669e-01
                         Temperature (°C)  =  64.11
                           Pressure (atm)  = 10.13
                  Electrical balance (eq)  =   1.209e-10
 Percent error, 100*(Cat-|An|)/(Cat+|An|)  =   0.00
                               Iterations  =  41
                                  Total H  = 1.110105e+02
                                  Total O  = 5.584888e+01

----------------------------Distribution of species----------------------------

                                               Log       Log       Log    mole V
   Species          Molality    Activity  Molality  Activity     Gamma   cm³/mol

   H+              5.091e-06   4.410e-06    -5.293    -5.356    -0.062      0.00
   OH-             3.277e-08   2.733e-08    -7.485    -7.563    -0.079     -3.86
   H2O             5.551e+01   9.970e-01     1.744    -0.001     0.000     18.36
C(-4)         5.028e-26
   CH4             5.028e-26   5.063e-26   -25.299   -25.296     0.003     38.31
C(4)          1.669e-01
   CO2             1.445e-01   1.451e-01    -0.840    -0.838     0.002     36.70
   HCO3-           1.977e-02   1.675e-02    -1.704    -1.776    -0.072     26.05
   (CO2)2          1.313e-03   1.319e-03    -2.882    -2.880     0.002     72.55
   CaCO3           7.199e-06   7.248e-06    -5.143    -5.140     0.003    -14.45
   CO3-2           5.461e-07   2.807e-07    -6.263    -6.552    -0.289     -3.42
   CaHCO3+         0.000e+00   0.000e+00  -114.129  -114.205    -0.076     (0)  
Ca            9.891e-03
   Ca+2            9.884e-03   5.076e-03    -2.005    -2.294    -0.289    -17.82
   CaCO3           7.199e-06   7.248e-06    -5.143    -5.140     0.003    -14.45
   CaOH+           2.269e-10   1.905e-10    -9.644    -9.720    -0.076     (0)  
   CaHCO3+         0.000e+00   0.000e+00  -114.129  -114.205    -0.076     (0)  
H(0)          1.046e-14
   H2              5.230e-15   5.267e-15   -14.282   -14.278     0.003     17.01
O(0)          0.000e+00
   O2              0.000e+00   0.000e+00   -52.570   -52.567     0.003     32.53

------------------------------Saturation indices-------------------------------

  Phase               SI** log IAP   log K(337 K,  10 atm)

  Aragonite        -0.17     -8.85   -8.68  CaCO3
  Calcite          -0.00     -8.85   -8.85  CaCO3
  CH4(g)          -22.29    -25.30   -3.00  CH4
  CO2(g)            0.98     -0.84   -1.82  CO2	 Pressure   9.9 atm, phi 0.962
  H2(g)           -11.15    -14.28   -3.13  H2
  H2O(g)           -0.63     -0.00    0.62  H2O	 Pressure   0.3 atm, phi 0.930
  O2(g)           -49.49    -52.57   -3.08  O2

**For a gas, SI = log10(fugacity). Fugacity = pressure * phi / 1 atm.
  For ideal gases, phi = 1.

Reaction step 13.

Using solution 1.	
Using pure phase assemblage 1.	
Using gas phase 1.	
Using temperature 1.	

-----------------------------------Gas phase-----------------------------------

Total pressure: 10.20      atmospheres          (Peng-Robinson calculation)
    Gas volume:   1.00e-01 liters
  Molar volume:   2.65e+00 liters/mole
   P * Vm / RT:  0.96221  (Compressibility Factor Z) 

                                                        Moles in gas
                                            ----------------------------------
Component         log P           P    phi     Initial       Final       Delta

CO2(g)             0.99   9.874e+00  0.964   0.000e+00   3.646e-02   3.646e-02
H2O(g)            -0.49   3.265e-01  0.932   0.000e+00   1.206e-03   1.206e-03

-------------------------------Phase assemblage--------------------------------

                                                      Moles in assemblage
Phase               SI  log IAP  log K(T, P)   Initial       Final       Delta

CO2(g)            0.98    -0.87     -1.85    1.000e+01   9.818e+00  -1.816e-01
Calcite          -0.00    -8.92     -8.92    1.000e+01   9.991e+00  -8.878e-03

-----------------------------Solution composition------------------------------

	Elements           Molality       Moles

	C                 1.541e-01   1.540e-01
	Ca                8.880e-03   8.878e-03

----------------------------Description of solution----------------------------

                                       pH  =   5.356      Charge balance
                                       pe  =   0.121      Adjusted to redox equilibrium
      Specific Conductance (µS/cm,  70°C)  = 3380
                          Density (g/cm³)  =   0.98041
                               Volume (L)  =   1.02738
                        Viscosity (mPa s)  =   0.41041
                        Activity of water  =   0.997
                 Ionic strength (mol/kgw)  =   2.662e-02
                       Mass of water (kg)  =   9.998e-01
                 Total alkalinity (eq/kg)  =   1.776e-02
                       Total CO2 (mol/kg)  =   1.541e-01
                         Temperature (°C)  =  69.84
                           Pressure (atm)  = 10.20
                  Electrical balance (eq)  =   1.521e-10
 Percent error, 100*(Cat-|An|)/(Cat+|An|)  =   0.00
                               Iterations  =  40
                                  Total H  = 1.110100e+02
                                  Total O  = 5.582194e+01

----------------------------Distribution of species----------------------------

                                               Log       Log       Log    mole V
   Species          Molality    Activity  Molality  Activity     Gamma   cm³/mol

   H+              5.068e-06   4.405e-06    -5.295    -5.356    -0.061      0.00
   OH-             4.359e-08   3.656e-08    -7.361    -7.437    -0.076     -4.05
   H2O             5.551e+01   9.973e-01     1.744    -0.001     0.000     18.42
C(-4)         1.229e-26
   CH4             1.229e-26   1.236e-26   -25.911   -25.908     0.003     38.71
C(4)          1.541e-01
   CO2             1.338e-01   1.343e-01    -0.874    -0.872     0.002     37.02
   HCO3-           1.775e-02   1.511e-02    -1.751    -1.821    -0.070     25.95
   (CO2)2          1.251e-03   1.256e-03    -2.903    -2.901     0.002     73.21
   CaCO3           7.272e-06   7.316e-06    -5.138    -5.136     0.003    -14.43
   CO3-2           4.921e-07   2.578e-07    -6.308    -6.589    -0.281     -3.79
   CaHCO3+         0.000e+00   0.000e+00  -114.207  -114.281    -0.074     (0)  
Ca            8.880e-03
   Ca+2            8.872e-03   4.644e-03    -2.052    -2.333    -0.281    -17.97
   CaCO3           7.272e-06   7.316e-06    -5.138    -5.136     0.003    -14.43
   CaOH+           2.068e-10   1.745e-10    -9.684    -9.758    -0.074     (0)  
   CaHCO3+         0.000e+00   0.000e+00  -114.207  -114.281    -0.074     (0)  
H(0)          1.053e-14
   H2              5.267e-15   5.301e-15   -14.278   -14.276     0.003     17.23
O(0)          0.000e+00
   O2              0.000e+00   0.000e+00   -51.188   -51.185     0.003     32.76

------------------------------Saturation indices-------------------------------

  Phase               SI** log IAP   log K(342 K,  10 atm)

  Aragonite        -0.18     -8.92   -8.74  CaCO3
  Calcite          -0.00     -8.92   -8.92  CaCO3
  CH4(g)          -22.89    -25.91   -3.01  CH4
  CO2(g)            0.98     -0.87   -1.85  CO2	 Pressure   9.9 atm, phi 0.964
  H2(g)           -11.15    -14.28   -3.13  H2
  H2O(g)           -0.52     -0.00    0.52  H2O	 Pressure   0.3 atm, phi 0.932
  O2(g)           -48.09    -51.19   -3.09  O2

**For a gas, SI = log10(fugacity). Fugacity = pressure * phi / 1 atm.
  For ideal gases, phi = 1.

Reaction step 14.

Using solution 1.	
Using pure phase assemblage 1.	
Using gas phase 1.	
Using temperature 1.	

-----------------------------------Gas phase-----------------------------------

Total pressure: 10.29      atmospheres          (Peng-Robinson calculation)
    Gas volume:   1.00e-01 liters
  Molar volume:   2.68e+00 liters/mole
   P * Vm / RT:  0.96365  (Compressibility Factor Z) 

                                                        Moles in gas
                                            ----------------------------------
Component         log P           P    phi     Initial       Final       Delta

CO2(g)             0.99   9.876e+00  0.966   0.000e+00   3.582e-02   3.582e-02
H2O(g)            -0.38   4.156e-01  0.934   0.000e+00   1.507e-03   1.507e-03

-------------------------------Phase assemblage--------------------------------

                                                      Moles in assemblage
Phase               SI  log IAP  log K(T, P)   Initial       Final       Delta

CO2(g)            0.98    -0.90     -1.88    1.000e+01   9.829e+00  -1.709e-01
Calcite          -0.00    -9.00     -9.00    1.000e+01   9.992e+00  -7.972e-03

-----------------------------Solution composition------------------------------

	Elements           Molality       Moles

	C                 1.431e-01   1.431e-01
	Ca                7.973e-03   7.972e-03

----------------------------Description of solution----------------------------

                                       pH  =   5.357      Charge balance
                                       pe  =   0.100      Adjusted to redox equilibrium
      Specific Conductance (µS/cm,  76°C)  = 3294
                          Density (g/cm³)  =   0.97685
                               Volume (L)  =   1.03058
                        Viscosity (mPa s)  =   0.37969
                        Activity of water  =   0.997
                 Ionic strength (mol/kgw)  =   2.390e-02
                       Mass of water (kg)  =   9.998e-01
                 Total alkalinity (eq/kg)  =   1.595e-02
                       Total CO2 (mol/kg)  =   1.431e-01
                         Temperature (°C)  =  75.58
                           Pressure (atm)  = 10.29
                  Electrical balance (eq)  =   1.045e-10
 Percent error, 100*(Cat-|An|)/(Cat+|An|)  =   0.00
                               Iterations  =  40
                                  Total H  = 1.110094e+02
                                  Total O  = 5.579880e+01

----------------------------Distribution of species----------------------------

                                               Log       Log       Log    mole V
   Species          Molality    Activity  Molality  Activity     Gamma   cm³/mol

   H+              5.036e-06   4.392e-06    -5.298    -5.357    -0.059      0.00
   OH-             5.718e-08   4.824e-08    -7.243    -7.317    -0.074     -4.28
   H2O             5.551e+01   9.975e-01     1.744    -0.001     0.000     18.48
C(-4)         3.684e-27
   CH4             3.684e-27   3.705e-27   -26.434   -26.431     0.002     39.12
C(4)          1.431e-01
   CO2             1.248e-01   1.252e-01    -0.904    -0.902     0.002     37.37
   HCO3-           1.594e-02   1.363e-02    -1.798    -1.866    -0.068     25.81
   (CO2)2          1.185e-03   1.189e-03    -2.926    -2.925     0.002     73.89
   CaCO3           7.265e-06   7.305e-06    -5.139    -5.136     0.002    -14.42
   CO3-2           4.400e-07   2.349e-07    -6.357    -6.629    -0.273     -4.24
   CaHCO3+         0.000e+00   0.000e+00  -114.290  -114.362    -0.072     (0)  
Ca            7.973e-03
   Ca+2            7.966e-03   4.247e-03    -2.099    -2.372    -0.273    -18.14
   CaCO3           7.265e-06   7.305e-06    -5.139    -5.136     0.002    -14.42
   CaOH+           1.888e-10   1.601e-10    -9.724    -9.796    -0.072     (0)  
   CaHCO3+         0.000e+00   0.000e+00  -114.290  -114.362    -0.072     (0)  
H(0)          1.108e-14
   H2              5.538e-15   5.570e-15   -14.257   -14.254     0.003     17.45
O(0)          0.000e+00
   O2              0.000e+00   0.000e+00   -49.904   -49.901     0.002     32.98

------------------------------Saturation indices-------------------------------

  Phase               SI** log IAP   log K(348 K,  10 atm)

  Aragonite        -0.19     -9.00   -8.81  CaCO3
  Calcite          -0.00     -9.00   -9.00  CaCO3
  CH4(g)          -23.41    -26.43   -3.02  CH4
  CO2(g)            0.98     -0.90   -1.88  CO2	 Pressure   9.9 atm, phi 0.966
  H2(g)           -11.13    -14.25   -3.12  H2
  H2O(g)           -0.41     -0.00    0.41  H2O	 Pressure   0.4 atm, phi 0.934
  O2(g)           -46.80    -49.90   -3.10  O2

**For a gas, SI = log10(fugacity). Fugacity = pressure * phi / 1 atm.
  For ideal gases, phi = 1.

Reaction step 15.

Using solution 1.	
Using pure phase assemblage 1.	
Using gas phase 1.	
Using temperature 1.	

-----------------------------------Gas phase-----------------------------------

Total pressure: 10.40      atmospheres          (Peng-Robinson calculation)
    Gas volume:   1.00e-01 liters
  Molar volume:   2.70e+00 liters/mole
   P * Vm / RT:  0.96488  (Compressibility Factor Z) 

                                                        Moles in gas
                                            ----------------------------------
Component         log P           P    phi     Initial       Final       Delta

CO2(g)             0.99   9.879e+00  0.967   0.000e+00   3.520e-02   3.520e-02
H2O(g)            -0.28   5.244e-01  0.936   0.000e+00   1.868e-03   1.868e-03

-------------------------------Phase assemblage--------------------------------

                                                      Moles in assemblage
Phase               SI  log IAP  log K(T, P)   Initial       Final       Delta

CO2(g)            0.98    -0.93     -1.91    1.000e+01   9.838e+00  -1.617e-01
Calcite          -0.00    -9.08     -9.08    1.000e+01   9.993e+00  -7.159e-03

-----------------------------Solution composition------------------------------

	Elements           Molality       Moles

	C                 1.337e-01   1.337e-01
	Ca                7.160e-03   7.159e-03

----------------------------Description of solution----------------------------

                                       pH  =   5.359      Charge balance
                                       pe  =   0.104      Adjusted to redox equilibrium
      Specific Conductance (µS/cm,  81°C)  = 3194
                          Density (g/cm³)  =   0.97314
                               Volume (L)  =   1.03402
                        Viscosity (mPa s)  =   0.35273
                        Activity of water  =   0.998
                 Ionic strength (mol/kgw)  =   2.147e-02
                       Mass of water (kg)  =   9.998e-01
                 Total alkalinity (eq/kg)  =   1.432e-02
                       Total CO2 (mol/kg)  =   1.337e-01
                         Temperature (°C)  =  81.32
                           Pressure (atm)  = 10.40
                  Electrical balance (eq)  =   1.181e-10
 Percent error, 100*(Cat-|An|)/(Cat+|An|)  =   0.00
                               Iterations  =  39
                                  Total H  = 1.110087e+02
                                  Total O  = 5.577881e+01

----------------------------Distribution of species----------------------------

                                               Log       Log       Log    mole V
   Species          Molality    Activity  Molality  Activity     Gamma   cm³/mol

   H+              4.998e-06   4.373e-06    -5.301    -5.359    -0.058      0.00
   OH-             7.403e-08   6.280e-08    -7.131    -7.202    -0.071     -4.55
   H2O             5.551e+01   9.976e-01     1.744    -0.001     0.000     18.55
C(-4)         7.164e-28
   CH4             7.164e-28   7.199e-28   -27.145   -27.143     0.002     39.54
C(4)          1.337e-01
   CO2             1.171e-01   1.175e-01    -0.931    -0.930     0.001     37.73
   HCO3-           1.431e-02   1.229e-02    -1.844    -1.910    -0.066     25.62
   (CO2)2          1.115e-03   1.119e-03    -2.953    -2.951     0.001     74.62
   CaCO3           7.167e-06   7.202e-06    -5.145    -5.143     0.002    -14.41
   CO3-2           3.906e-07   2.123e-07    -6.408    -6.673    -0.265     -4.78
   CaHCO3+         0.000e+00   0.000e+00  -114.377  -114.446    -0.069     (0)  
Ca            7.160e-03
   Ca+2            7.153e-03   3.883e-03    -2.145    -2.411    -0.265    -18.33
   CaCO3           7.167e-06   7.202e-06    -5.145    -5.143     0.002    -14.41
   CaOH+           1.725e-10   1.470e-10    -9.763    -9.833    -0.069     (0)  
   CaHCO3+         0.000e+00   0.000e+00  -114.377  -114.446    -0.069     (0)  
H(0)          1.037e-14
   H2              5.184e-15   5.211e-15   -14.285   -14.283     0.002     17.65
O(0)          0.000e+00
   O2              0.000e+00   0.000e+00   -48.577   -48.575     0.002     33.19

------------------------------Saturation indices-------------------------------

  Phase               SI** log IAP   log K(354 K,  10 atm)

  Aragonite        -0.20     -9.08   -8.89  CaCO3
  Calcite          -0.00     -9.08   -9.08  CaCO3
  CH4(g)          -24.12    -27.14   -3.02  CH4
  CO2(g)            0.98     -0.93   -1.91  CO2	 Pressure   9.9 atm, phi 0.967
  H2(g)           -11.17    -14.28   -3.12  H2
  H2O(g)           -0.31     -0.00    0.31  H2O	 Pressure   0.5 atm, phi 0.936
  O2(g)           -45.46    -48.57   -3.11  O2

**For a gas, SI = log10(fugacity). Fugacity = pressure * phi / 1 atm.
  For ideal gases, phi = 1.

Reaction step 16.

Using solution 1.	
Using pure phase assemblage 1.	
Using gas phase 1.	
Using temperature 1.	

-----------------------------------Gas phase-----------------------------------

Total pressure: 10.54      atmospheres          (Peng-Robinson calculation)
    Gas volume:   1.00e-01 liters
  Molar volume:   2.71e+00 liters/mole
   P * Vm / RT:  0.96591  (Compressibility Factor Z) 

                                                        Moles in gas
                                            ----------------------------------
Component         log P           P    phi     Initial       Final       Delta

CO2(g)             0.99   9.881e+00  0.969   0.000e+00   3.461e-02   3.461e-02
H2O(g)            -0.18   6.562e-01  0.937   0.000e+00   2.299e-03   2.299e-03

-------------------------------Phase assemblage--------------------------------

                                                      Moles in assemblage
Phase               SI  log IAP  log K(T, P)   Initial       Final       Delta

CO2(g)            0.98    -0.95     -1.94    1.000e+01   9.846e+00  -1.537e-01
Calcite          -0.00    -9.17     -9.17    1.000e+01   9.994e+00  -6.430e-03

-----------------------------Solution composition------------------------------

	Elements           Molality       Moles

	C                 1.256e-01   1.256e-01
	Ca                6.431e-03   6.430e-03

----------------------------Description of solution----------------------------

                                       pH  =   5.362      Charge balance
                                       pe  =   0.077      Adjusted to redox equilibrium
      Specific Conductance (µS/cm,  87°C)  = 3084
                          Density (g/cm³)  =   0.96930
                               Volume (L)  =   1.03771
                        Viscosity (mPa s)  =   0.32894
                        Activity of water  =   0.998
                 Ionic strength (mol/kgw)  =   1.928e-02
                       Mass of water (kg)  =   9.998e-01
                 Total alkalinity (eq/kg)  =   1.286e-02
                       Total CO2 (mol/kg)  =   1.256e-01
                         Temperature (°C)  =  87.05
                           Pressure (atm)  = 10.54
                  Electrical balance (eq)  =   7.123e-11
 Percent error, 100*(Cat-|An|)/(Cat+|An|)  =   0.00
                               Iterations  =  39
                                  Total H  = 1.110078e+02
                                  Total O  = 5.576145e+01

----------------------------Distribution of species----------------------------

                                               Log       Log       Log    mole V
   Species          Molality    Activity  Molality  Activity     Gamma   cm³/mol

   H+              4.953e-06   4.348e-06    -5.305    -5.362    -0.057      0.00
   OH-             9.464e-08   8.070e-08    -7.024    -7.093    -0.069     -4.87
   H2O             5.551e+01   9.978e-01     1.744    -0.001     0.000     18.62
C(-4)         2.491e-28
   CH4             2.491e-28   2.503e-28   -27.604   -27.602     0.002     39.98
C(4)          1.256e-01
   CO2             1.106e-01   1.109e-01    -0.956    -0.955     0.001     38.12
   HCO3-           1.285e-02   1.109e-02    -1.891    -1.955    -0.064     25.38
   (CO2)2          1.044e-03   1.047e-03    -2.981    -2.980     0.001     75.40
   CaCO3           6.969e-06   7.000e-06    -5.157    -5.155     0.002    -14.40
   CO3-2           3.443e-07   1.905e-07    -6.463    -6.720    -0.257     -5.41
   CaHCO3+         0.000e+00   0.000e+00  -114.468  -114.535    -0.067     (0)  
Ca            6.431e-03
   Ca+2            6.425e-03   3.549e-03    -2.192    -2.450    -0.258    -18.55
   CaCO3           6.969e-06   7.000e-06    -5.157    -5.155     0.002    -14.40
   CaOH+           1.579e-10   1.352e-10    -9.802    -9.869    -0.067     (0)  
   CaHCO3+         0.000e+00   0.000e+00  -114.468  -114.535    -0.067     (0)  
H(0)          1.114e-14
   H2              5.569e-15   5.595e-15   -14.254   -14.252     0.002     17.85
O(0)          0.000e+00
[...]
                                       pe  =   5.222      Adjusted to redox equilibrium
      Specific Conductance (µS/cm, 202°C)  = 1457
                          Density (g/cm³)  =   0.86027
                               Volume (L)  =   1.18873
                        Viscosity (mPa s)  =   0.13330 (solute contributions limited to 200 °C)
                        Activity of water  =   0.991
                 Ionic strength (mol/kgw)  =   4.268e-03
                       Mass of water (kg)  =   1.000e+00
                 Total alkalinity (eq/kg)  =   2.837e-03
                       Total CO2 (mol/kg)  =   5.123e-01
                         Temperature (°C)  = 201.84
                           Pressure (atm)  = 15.98
                  Electrical balance (eq)  =   4.308e-12
 Percent error, 100*(Cat-|An|)/(Cat+|An|)  =   0.00
                               Iterations  =  11
                                  Total H  = 1.110124e+02
                                  Total O  = 5.653226e+01

----------------------------Distribution of species----------------------------

                                               Log       Log       Log    mole V
   Species          Molality    Activity  Molality  Activity     Gamma   cm³/mol

   H+              1.245e-05   1.125e-05    -4.905    -4.949    -0.044      0.00
   OH-             4.893e-07   4.368e-07    -6.310    -6.360    -0.049    -26.60
   H2O             5.551e+01   9.913e-01     1.744    -0.004     0.000     20.89
C(-4)         0.000e+00
   CH4             0.000e+00   0.000e+00   -75.299   -75.299     0.000     59.33
C(4)          5.123e-01
   CO2             5.027e-01   5.031e-01    -0.299    -0.298     0.000     57.68
   (CO2)2          3.376e-03   3.378e-03    -2.472    -2.471     0.000    114.53
   HCO3-           2.849e-03   2.556e-03    -2.545    -2.593    -0.047      5.62
   CaCO3           5.020e-08   5.025e-08    -7.299    -7.299     0.000    -13.96
   CO3-2           5.699e-09   3.688e-09    -8.244    -8.433    -0.189    -49.45
   CaHCO3+         0.000e+00   0.000e+00  -116.385  -116.434    -0.049     (0)  
Ca            1.419e-03
   Ca+2            1.419e-03   9.161e-04    -2.848    -3.038    -0.190    -32.11
   CaCO3           5.020e-08   5.025e-08    -7.299    -7.299     0.000    -13.96
   CaOH+           1.493e-11   1.334e-11   -10.826   -10.875    -0.049     (0)  
   CaHCO3+         0.000e+00   0.000e+00  -116.385  -116.434    -0.049     (0)  
H(0)          2.115e-24
   H2              1.058e-24   1.059e-24   -23.976   -23.975     0.000     23.87
O(0)          1.166e-13
   O2              5.830e-14   5.836e-14   -13.234   -13.234     0.000     39.43

------------------------------Saturation indices-------------------------------

  Phase               SI** log IAP   log K(474 K,  16 atm)

  Aragonite        -0.22    -11.47  -11.25  CaCO3
  Calcite          -0.00    -11.47  -11.47  CaCO3
  CH4(g)          -72.55    -75.30   -2.75  CH4
  CO2(g)            1.76     -0.30   -2.06  CO2	 Pressure  61.7 atm, phi 0.940
  H2(g)           -21.22    -23.98   -2.75  H2
  H2O(g)            1.17     -0.00   -1.17  H2O
  O2(g)           -10.37    -13.23   -2.87  O2

**For a gas, SI = log10(fugacity). Fugacity = pressure * phi / 1 atm.
  For ideal gases, phi = 1.

Reaction step 17.

Using solution 1.	
Using pure phase assemblage 1.	
Using temperature 2.	

-------------------------------Phase assemblage--------------------------------

                                                      Moles in assemblage
Phase               SI  log IAP  log K(T, P)   Initial       Final       Delta

CO2(g)            1.76    -0.29     -2.05    1.000e+01   9.481e+00  -5.193e-01
Calcite          -0.00   -11.61    -11.61    1.000e+01   9.999e+00  -1.272e-03

-----------------------------Solution composition------------------------------

	Elements           Molality       Moles

	C                 5.206e-01   5.206e-01
	Ca                1.272e-03   1.272e-03

----------------------------Description of solution----------------------------

                                       pH  =   4.953      Charge balance
                                       pe  =   5.217      Adjusted to redox equilibrium
      Specific Conductance (µS/cm, 208°C)  = 1329
                          Density (g/cm³)  =   0.85267
                               Volume (L)  =   1.19974
                        Viscosity (mPa s)  =   0.12940 (solute contributions limited to 200 °C)
                        Activity of water  =   0.991
                 Ionic strength (mol/kgw)  =   3.827e-03
                       Mass of water (kg)  =   1.000e+00
                 Total alkalinity (eq/kg)  =   2.544e-03
                       Total CO2 (mol/kg)  =   5.206e-01
                         Temperature (°C)  = 207.63
                           Pressure (atm)  = 17.99
                  Electrical balance (eq)  =   2.338e-12
 Percent error, 100*(Cat-|An|)/(Cat+|An|)  =   0.00
                               Iterations  =  11
                                  Total H  = 1.110124e+02
                                  Total O  = 5.654867e+01

----------------------------Distribution of species----------------------------

                                               Log       Log       Log    mole V
   Species          Molality    Activity  Molality  Activity     Gamma   cm³/mol

   H+              1.231e-05   1.116e-05    -4.910    -4.953    -0.043      0.00
   OH-             5.141e-07   4.605e-07    -6.289    -6.337    -0.048    -29.26
   H2O             5.551e+01   9.912e-01     1.744    -0.004     0.000     21.06
C(-4)         0.000e+00
   CH4             0.000e+00   0.000e+00   -75.739   -75.739     0.000     61.49
C(4)          5.206e-01
   CO2             5.123e-01   5.126e-01    -0.290    -0.290     0.000     59.93
   (CO2)2          2.875e-03   2.877e-03    -2.541    -2.541     0.000    119.03
   HCO3-           2.555e-03   2.299e-03    -2.593    -2.638    -0.046      3.15
   CaCO3           3.042e-08   3.045e-08    -7.517    -7.516     0.000    -13.91
   CO3-2           4.525e-09   2.964e-09    -8.344    -8.528    -0.184    -54.85
   CaHCO3+         0.000e+00   0.000e+00  -116.530  -116.577    -0.048     (0)  
Ca            1.272e-03
   Ca+2            1.272e-03   8.314e-04    -2.896    -3.080    -0.185    -33.77
   CaCO3           3.042e-08   3.045e-08    -7.517    -7.516     0.000    -13.91
   CaOH+           1.360e-11   1.219e-11   -10.866   -10.914    -0.048     (0)  
   CaHCO3+         0.000e+00   0.000e+00  -116.530  -116.577    -0.048     (0)  
H(0)          2.073e-24
   H2              1.036e-24   1.037e-24   -23.985   -23.984     0.000     24.47
O(0)          2.742e-13
   O2              1.371e-13   1.372e-13   -12.863   -12.863     0.000     40.02

------------------------------Saturation indices-------------------------------

  Phase               SI** log IAP   log K(480 K,  18 atm)

  Aragonite        -0.21    -11.61  -11.40  CaCO3
  Calcite          -0.00    -11.61  -11.61  CaCO3
  CH4(g)          -73.00    -75.74   -2.73  CH4
  CO2(g)            1.76     -0.29   -2.05  CO2	 Pressure  61.7 atm, phi 0.943
  H2(g)           -21.26    -23.98   -2.73  H2
  H2O(g)            1.22     -0.00   -1.22  H2O
  O2(g)           -10.02    -12.86   -2.84  O2

**For a gas, SI = log10(fugacity). Fugacity = pressure * phi / 1 atm.
  For ideal gases, phi = 1.

Reaction step 18.

Using solution 1.	
Using pure phase assemblage 1.	
Using temperature 2.	

-------------------------------Phase assemblage--------------------------------

                                                      Moles in assemblage
Phase               SI  log IAP  log K(T, P)   Initial       Final       Delta

CO2(g)            1.77    -0.28     -2.05    1.000e+01   9.471e+00  -5.290e-01
Calcite          -0.00   -11.75    -11.75    1.000e+01   9.999e+00  -1.140e-03

-----------------------------Solution composition------------------------------

	Elements           Molality       Moles

	C                 5.302e-01   5.302e-01
	Ca                1.140e-03   1.140e-03

----------------------------Description of solution----------------------------

                                       pH  =   4.956      Charge balance
                                       pe  =   5.212      Adjusted to redox equilibrium
      Specific Conductance (µS/cm, 213°C)  = 1211
                          Density (g/cm³)  =   0.84481
                               Volume (L)  =   1.21140
                        Viscosity (mPa s)  =   0.12572 (solute contributions limited to 200 °C)
                        Activity of water  =   0.991
                 Ionic strength (mol/kgw)  =   3.433e-03
                       Mass of water (kg)  =   1.000e+00
                 Total alkalinity (eq/kg)  =   2.281e-03
                       Total CO2 (mol/kg)  =   5.302e-01
                         Temperature (°C)  = 213.42
                           Pressure (atm)  = 20.19
                  Electrical balance (eq)  =   1.399e-12
 Percent error, 100*(Cat-|An|)/(Cat+|An|)  =   0.00
                               Iterations  =  11
                                  Total H  = 1.110124e+02
                                  Total O  = 5.656766e+01

----------------------------Distribution of species----------------------------

                                               Log       Log       Log    mole V
   Species          Molality    Activity  Molality  Activity     Gamma   cm³/mol

   H+              1.218e-05   1.106e-05    -4.914    -4.956    -0.042      0.00
   OH-             5.365e-07   4.821e-07    -6.270    -6.317    -0.046    -32.23
   H2O             5.551e+01   9.910e-01     1.744    -0.004     0.000     21.23
C(-4)         0.000e+00
   CH4             0.000e+00   0.000e+00   -76.167   -76.166     0.000     63.89
C(4)          5.302e-01
   CO2             5.230e-01   5.233e-01    -0.282    -0.281     0.000     62.43
   (CO2)2          2.440e-03   2.441e-03    -2.613    -2.612     0.000    124.03
   HCO3-           2.292e-03   2.068e-03    -2.640    -2.684    -0.045      0.40
   CaCO3           1.798e-08   1.799e-08    -7.745    -7.745     0.000    -13.85
   CO3-2           3.585e-09   2.376e-09    -8.446    -8.624    -0.179    -60.87
   CaHCO3+         0.000e+00   0.000e+00  -116.677  -116.723    -0.046     (0)  
Ca            1.140e-03
   Ca+2            1.140e-03   7.543e-04    -2.943    -3.122    -0.179    -35.63
   CaCO3           1.798e-08   1.799e-08    -7.745    -7.745     0.000    -13.85
   CaOH+           1.239e-11   1.114e-11   -10.907   -10.953    -0.046     (0)  
   CaHCO3+         0.000e+00   0.000e+00  -116.677  -116.723    -0.046     (0)  
H(0)          2.038e-24
   H2              1.019e-24   1.020e-24   -23.992   -23.991     0.000     25.13
O(0)          5.966e-13
   O2              2.983e-13   2.985e-13   -12.525   -12.525     0.000     40.67

------------------------------Saturation indices-------------------------------

  Phase               SI** log IAP   log K(486 K,  20 atm)

  Aragonite        -0.20    -11.75  -11.55  CaCO3
  Calcite          -0.00    -11.75  -11.75  CaCO3
  CH4(g)          -73.45    -76.17   -2.72  CH4
  CO2(g)            1.77     -0.28   -2.05  CO2	 Pressure  61.7 atm, phi 0.946
  H2(g)           -21.29    -23.99   -2.70  H2
  H2O(g)            1.26     -0.00   -1.27  H2O
  O2(g)            -9.71    -12.52   -2.82  O2

**For a gas, SI = log10(fugacity). Fugacity = pressure * phi / 1 atm.
  For ideal gases, phi = 1.

Reaction step 19.

Using solution 1.	
Using pure phase assemblage 1.	
Using temperature 2.	

-------------------------------Phase assemblage--------------------------------

                                                      Moles in assemblage
Phase               SI  log IAP  log K(T, P)   Initial       Final       Delta

CO2(g)            1.77    -0.27     -2.04    1.000e+01   9.460e+00  -5.400e-01
Calcite          -0.00   -11.89    -11.89    1.000e+01   9.999e+00  -1.023e-03

-----------------------------Solution composition------------------------------

	Elements           Molality       Moles

	C                 5.410e-01   5.410e-01
	Ca                1.023e-03   1.023e-03

----------------------------Description of solution----------------------------

                                       pH  =   4.960      Charge balance
                                       pe  =   5.207      Adjusted to redox equilibrium
      Specific Conductance (µS/cm, 219°C)  = 1102
                          Density (g/cm³)  =   0.83665
                               Volume (L)  =   1.22377
                        Viscosity (mPa s)  =   0.12224 (solute contributions limited to 200 °C)
                        Activity of water  =   0.991
                 Ionic strength (mol/kgw)  =   3.080e-03
                       Mass of water (kg)  =   1.000e+00
                 Total alkalinity (eq/kg)  =   2.045e-03
                       Total CO2 (mol/kg)  =   5.410e-01
                         Temperature (°C)  = 219.21
                           Pressure (atm)  = 22.59
                  Electrical balance (eq)  =   9.059e-13
 Percent error, 100*(Cat-|An|)/(Cat+|An|)  =   0.00
                               Iterations  =  11
                                  Total H  = 1.110124e+02
                                  Total O  = 5.658920e+01

----------------------------Distribution of species----------------------------

                                               Log       Log       Log    mole V
   Species          Molality    Activity  Molality  Activity     Gamma   cm³/mol

   H+              1.205e-05   1.097e-05    -4.919    -4.960    -0.041      0.00
   OH-             5.561e-07   5.014e-07    -6.255    -6.300    -0.045    -35.55
   H2O             5.551e+01   9.908e-01     1.744    -0.004     0.000     21.42
C(-4)         0.000e+00
   CH4             0.000e+00   0.000e+00   -76.587   -76.586     0.000     66.56
C(4)          5.410e-01
   CO2             5.348e-01   5.351e-01    -0.272    -0.272     0.000     65.22
   (CO2)2          2.062e-03   2.063e-03    -2.686    -2.685     0.000    129.59
   HCO3-           2.057e-03   1.861e-03    -2.687    -2.730    -0.043     -2.67
   CaCO3           1.036e-08   1.036e-08    -7.985    -7.985     0.000    -13.78
   CO3-2           2.834e-09   1.900e-09    -8.548    -8.721    -0.174    -67.59
   CaHCO3+         0.000e+00   0.000e+00  -116.825  -116.870    -0.045     (0)  
Ca            1.023e-03
   Ca+2            1.023e-03   6.843e-04    -2.990    -3.165    -0.175    -37.71
   CaCO3           1.036e-08   1.036e-08    -7.985    -7.985     0.000    -13.78
   CaOH+           1.128e-11   1.017e-11   -10.948   -10.993    -0.045     (0)  
   CaHCO3+         0.000e+00   0.000e+00  -116.825  -116.870    -0.045     (0)  
H(0)          2.007e-24
   H2              1.003e-24   1.004e-24   -23.998   -23.998     0.000     25.85
O(0)          1.207e-12
   O2              6.036e-13   6.040e-13   -12.219   -12.219     0.000     41.38

------------------------------Saturation indices-------------------------------

  Phase               SI** log IAP   log K(492 K,  23 atm)

  Aragonite        -0.19    -11.89  -11.69  CaCO3
  Calcite          -0.00    -11.89  -11.89  CaCO3
  CH4(g)          -73.88    -76.59   -2.70  CH4
  CO2(g)            1.77     -0.27   -2.04  CO2	 Pressure  61.7 atm, phi 0.949
  H2(g)           -21.33    -24.00   -2.67  H2
  H2O(g)            1.31     -0.00   -1.31  H2O
  O2(g)            -9.42    -12.22   -2.79  O2

**For a gas, SI = log10(fugacity). Fugacity = pressure * phi / 1 atm.
  For ideal gases, phi = 1.

Reaction step 20.

Using solution 1.	
Using pure phase assemblage 1.	
Using temperature 2.	

-------------------------------Phase assemblage--------------------------------

                                                      Moles in assemblage
Phase               SI  log IAP  log K(T, P)   Initial       Final       Delta

CO2(g)            1.77    -0.26     -2.03    1.000e+01   9.448e+00  -5.521e-01
Calcite          -0.00   -12.03    -12.03    1.000e+01   9.999e+00  -9.176e-04

-----------------------------Solution composition------------------------------

	Elements           Molality       Moles

	C                 5.531e-01   5.530e-01
	Ca                9.177e-04   9.176e-04

----------------------------Description of solution----------------------------

                                       pH  =   4.964      Charge balance
                                       pe  =   5.202      Adjusted to redox equilibrium
      Specific Conductance (µS/cm, 225°C)  = 1000
                          Density (g/cm³)  =   0.82817
                               Volume (L)  =   1.23694
                        Viscosity (mPa s)  =   0.11893 (solute contributions limited to 200 °C)
                        Activity of water  =   0.991
                 Ionic strength (mol/kgw)  =   2.765e-03
                       Mass of water (kg)  =   1.000e+00
                 Total alkalinity (eq/kg)  =   1.835e-03
                       Total CO2 (mol/kg)  =   5.531e-01
                         Temperature (°C)  = 225.00
                           Pressure (atm)  = 25.21
                  Electrical balance (eq)  =   6.253e-13
 Percent error, 100*(Cat-|An|)/(Cat+|An|)  =   0.00
                               Iterations  =  11
                                  Total H  = 1.110124e+02
                                  Total O  = 5.661322e+01

----------------------------Distribution of species----------------------------

                                               Log       Log       Log    mole V
   Species          Molality    Activity  Molality  Activity     Gamma   cm³/mol

   H+              1.192e-05   1.088e-05    -4.924    -4.964    -0.040      0.00
   OH-             5.728e-07   5.179e-07    -6.242    -6.286    -0.044    -39.26
   H2O             5.551e+01   9.906e-01     1.744    -0.004     0.000     21.61
C(-4)         0.000e+00
   CH4             0.000e+00   0.000e+00   -77.000   -77.000     0.000     69.55
C(4)          5.531e-01
   CO2             5.477e-01   5.480e-01    -0.261    -0.261     0.000     68.33
   HCO3-           1.847e-03   1.676e-03    -2.734    -2.776    -0.042     -6.12
   (CO2)2          1.736e-03   1.737e-03    -2.760    -2.760     0.000    135.82
   CaCO3           5.817e-09   5.821e-09    -8.235    -8.235     0.000    -13.70
   CO3-2           2.238e-09   1.516e-09    -8.650    -8.819    -0.169    -75.12
   CaHCO3+         0.000e+00   0.000e+00  -116.976  -117.019    -0.044     (0)  
Ca            9.177e-04
   Ca+2            9.177e-04   6.207e-04    -3.037    -3.207    -0.170    -40.03
   CaCO3           5.817e-09   5.821e-09    -8.235    -8.235     0.000    -13.70
   CaOH+           1.026e-11   9.280e-12   -10.989   -11.032    -0.044     (0)  
   CaHCO3+         0.000e+00   0.000e+00  -116.976  -117.019    -0.044     (0)  
H(0)          1.978e-24
   H2              9.890e-25   9.896e-25   -24.005   -24.005     0.000     26.67
O(0)          2.279e-12
   O2              1.140e-12   1.140e-12   -11.943   -11.943     0.000     42.18

------------------------------Saturation indices-------------------------------

  Phase               SI** log IAP   log K(498 K,  25 atm)

  Aragonite        -0.18    -12.03  -11.85  CaCO3
  Calcite          -0.00    -12.03  -12.03  CaCO3
  CH4(g)          -74.31    -77.00   -2.69  CH4
  CO2(g)            1.77     -0.26   -2.03  CO2	 Pressure  61.7 atm, phi 0.952
  H2(g)           -21.36    -24.00   -2.65  H2
  H2O(g)            1.35     -0.00   -1.36  H2O
  O2(g)            -9.17    -11.94   -2.77  O2

**For a gas, SI = log10(fugacity). Fugacity = pressure * phi / 1 atm.
  For ideal gases, phi = 1.

------------------
End of simulation.
------------------

------------------------------------
Reading input data for simulation 6.
------------------------------------

