WARNING: Database file from DATABASE keyword is used; command line argument ignored.
   Input file: cc_P2
  Output file: cc_P2.out
Database file: ../database/phreeqc.dat

------------------
Reading data base.
------------------

	SOLUTION_MASTER_SPECIES
	SOLUTION_SPECIES
	PHASES
	GAS_BINARY_PARAMETERS
	EXCHANGE_MASTER_SPECIES
	EXCHANGE_SPECIES
	SURFACE_MASTER_SPECIES
	SURFACE_SPECIES
	MEAN_GAMMAS
	RATES
	END
------------------------------------
Reading input data for simulation 1.
------------------------------------

	DATABASE ../database/phreeqc.dat
	SELECTED_OUTPUT 101
	    file                 cc_P2_101.sel
	USER_PUNCH 101
	    headings Mu SC
	    start
	10 PUNCH STR_F$(MU, 20, 12)
	20 PUNCH STR_F$(SC, 20, 10)
	    end
	SOLUTION 1
	 pH 7 charge
	 temp 100
	EQUILIBRIUM_PHASES
	 Calcite
	SOLUTION_SPECIES
	Ca+2 + CO3-2 + H+ = CaHCO3+
		log_k	-100 # remove this complex, data from Ellis, 1963 and Segnit et al. 1962.
	REACTION
	 CO2 1
	 0 4*0.05 5*0.1 8*0.3
	INCREMENTAL_REACTIONS true
	GAS_PHASE
	 fixed_volume
	 volume 1
	 CO2(g) 0
	 H2O(g) 0
	USER_GRAPH
	 -headings tk #Ca_tot Ca+2 CaCO3 CaHCO3+ SI_arg
	 -plot_csv_file cc_tc100.dat
	 -axis_scale x_axis 0 70
	 -axis_titles "CO2 Pressure / bar" "Calcite solubility / (mol/kgw)"
	 10 graph_x pr_p("CO2(g)") * 1.013
	 20 graph_y  tot("Ca"), # mol("Ca+2"), mol("CaCO3"), mol("CaHCO3+")
	END
-------------------------------------------
Beginning of initial solution calculations.
-------------------------------------------

Initial solution 1.	

-----------------------------Solution composition------------------------------

	Elements           Molality       Moles

	Pure water     

----------------------------Description of solution----------------------------

                                       pH  =   6.119      Charge balance
                                       pe  =   4.000    
      Specific Conductance (µS/cm, 100°C)  = 0
                          Density (g/cm³)  =   0.95835
                               Volume (L)  =   1.04346
                        Viscosity (mPa s)  =   0.28158
                        Activity of water  =   1.000
                 Ionic strength (mol/kgw)  =   7.610e-07
                       Mass of water (kg)  =   1.000e+00
                 Total alkalinity (eq/kg)  =  -1.160e-16
                         Temperature (°C)  = 100.00
                  Electrical balance (eq)  =   1.160e-16
 Percent error, 100*(Cat-|An|)/(Cat+|An|)  =   0.00
                               Iterations  =   5
                                  Total H  = 1.110124e+02
                                  Total O  = 5.550622e+01

----------------------------Distribution of species----------------------------

                                               Log       Log       Log    mole V
   Species          Molality    Activity  Molality  Activity     Gamma   cm³/mol

   H+              7.610e-07   7.601e-07    -6.119    -6.119    -0.001      0.00
   OH-             7.610e-07   7.601e-07    -6.119    -6.119    -0.001     -5.96
   H2O             5.551e+01   1.000e+00     1.744    -0.000     0.000     18.80
H(0)          4.504e-24
   H2              2.252e-24   2.252e-24   -23.647   -23.647     0.000     18.32
O(0)          1.633e-26
   O2              8.164e-27   8.164e-27   -26.088   -26.088     0.000     33.90

------------------------------Saturation indices-------------------------------

  Phase               SI** log IAP   log K(373 K,   1 atm)

  H2(g)           -20.56    -23.65   -3.09  H2
  H2O(g)           -0.00     -0.00    0.00  H2O
  O2(g)           -22.97    -26.09   -3.11  O2

**For a gas, SI = log10(fugacity). Fugacity = pressure * phi / 1 atm.
  For ideal gases, phi = 1.

-----------------------------------------
Beginning of batch-reaction calculations.
-----------------------------------------

Reaction step 1.

Using solution 1.	
Using pure phase assemblage 1.	
Using gas phase 1.	
Using reaction 1.	

Reaction 1.	

	  0.000e+00 moles of the following reaction have been added:

	                 Relative
	Reactant            moles

	CO2                  1.00000

	                 Relative
	Element             moles
	C                    1.00000
	O                    2.00000

-----------------------------------Gas phase-----------------------------------

Total pressure:  1.00      atmospheres          (Peng-Robinson calculation)
    Gas volume:   1.00e+00 liters
  Molar volume:   3.04e+01 liters/mole
   P * Vm / RT:  0.99132  (Compressibility Factor Z) 

                                                        Moles in gas
                                            ----------------------------------
Component         log P           P    phi     Initial       Final       Delta

CO2(g)            -3.87   1.364e-04  1.001   0.000e+00   4.494e-06   4.494e-06
H2O(g)            -0.00   9.971e-01  0.991   0.000e+00   3.285e-02   3.285e-02

-------------------------------Phase assemblage--------------------------------

                                                      Moles in assemblage
Phase               SI  log IAP  log K(T, P)   Initial       Final       Delta

Calcite           0.00    -9.39     -9.39    1.000e+01   1.000e+01  -1.677e-04

-----------------------------Solution composition------------------------------

	Elements           Molality       Moles

	C                 1.633e-04   1.632e-04
	Ca                1.678e-04   1.677e-04

----------------------------Description of solution----------------------------

                                       pH  =   8.441      Charge balance
                                       pe  =   4.558      Adjusted to redox equilibrium
      Specific Conductance (µS/cm, 100°C)  = 143
                          Density (g/cm³)  =   0.95837
                               Volume (L)  =   1.04284
                        Viscosity (mPa s)  =   0.28175
                        Activity of water  =   1.000
                 Ionic strength (mol/kgw)  =   4.884e-04
                       Mass of water (kg)  =   9.994e-01
                 Total alkalinity (eq/kg)  =   3.356e-04
                       Total CO2 (mol/kg)  =   1.633e-04
                         Temperature (°C)  = 100.00
                           Pressure (atm)  =  1.00
                  Electrical balance (eq)  =   3.481e-14
 Percent error, 100*(Cat-|An|)/(Cat+|An|)  =   0.00
                               Iterations  =  23
                                  Total H  = 1.109467e+02
                                  Total O  = 5.547386e+01

----------------------------Distribution of species----------------------------

                                               Log       Log       Log    mole V
   Species          Molality    Activity  Molality  Activity     Gamma   cm³/mol

   OH-             1.644e-04   1.596e-04    -3.784    -3.797    -0.013     -5.91
   H+              3.724e-09   3.619e-09    -8.429    -8.441    -0.012      0.00
   H2O             5.551e+01   1.000e+00     1.744    -0.000     0.000     18.80
C(-4)         0.000e+00
   CH4             0.000e+00   0.000e+00   -94.342   -94.342     0.000     41.06
C(4)          1.633e-04
   HCO3-           1.526e-04   1.482e-04    -3.817    -3.829    -0.013     24.26
   CaCO3           6.081e-06   6.082e-06    -5.216    -5.216     0.000    -14.43
   CO3-2           3.220e-06   2.864e-06    -5.492    -5.543    -0.051     -8.09
   CO2             1.432e-06   1.432e-06    -5.844    -5.844     0.000     39.13
   (CO2)2          1.826e-13   1.826e-13   -12.738   -12.738     0.000     77.42
   CaHCO3+         0.000e+00   0.000e+00  -117.814  -117.827    -0.013     (0)  
Ca            1.678e-04
   Ca+2            1.617e-04   1.438e-04    -3.791    -3.842    -0.051    -19.86
   CaCO3           6.081e-06   6.082e-06    -5.216    -5.216     0.000    -14.43
   CaOH+           6.792e-09   6.593e-09    -8.168    -8.181    -0.013     (0)  
   CaHCO3+         0.000e+00   0.000e+00  -117.814  -117.827    -0.013     (0)  
H(0)          7.819e-30
   H2              3.909e-30   3.910e-30   -29.408   -29.408     0.000     18.32
O(0)          5.415e-15
   O2              2.708e-15   2.708e-15   -14.567   -14.567     0.000     33.90

------------------------------Saturation indices-------------------------------

  Phase               SI** log IAP   log K(373 K,   1 atm)

  Aragonite        -0.22     -9.39   -9.17  CaCO3
  Calcite           0.00     -9.39   -9.39  CaCO3
  CH4(g)          -91.34    -94.34   -3.00  CH4
  CO2(g)           -3.86     -5.84   -1.98  CO2	 Pressure   0.0 atm, phi 1.001
  H2(g)           -26.32    -29.41   -3.09  H2
  H2O(g)           -0.01     -0.00    0.00  H2O	 Pressure   1.0 atm, phi 0.991
  O2(g)           -11.45    -14.57   -3.11  O2

**For a gas, SI = log10(fugacity). Fugacity = pressure * phi / 1 atm.
  For ideal gases, phi = 1.

Reaction step 2.

Using solution 1.	
Using pure phase assemblage 1.	
Using gas phase 1.	
Using reaction 1.	

Reaction 1.	

	  5.000e-02 moles of the following reaction have been added:

	                 Relative
	Reactant            moles

	CO2                  1.00000

	                 Relative
	Element             moles
	C                    1.00000
	O                    2.00000

-----------------------------------Gas phase-----------------------------------

Total pressure:  2.10      atmospheres          (Peng-Robinson calculation)
    Gas volume:   1.00e+00 liters
  Molar volume:   1.44e+01 liters/mole
   P * Vm / RT:  0.99015  (Compressibility Factor Z) 

                                                        Moles in gas
                                            ----------------------------------
Component         log P           P    phi     Initial       Final       Delta

CO2(g)             0.04   1.100e+00  0.996   4.494e-06   3.627e-02   3.626e-02
H2O(g)             0.00   1.005e+00  0.984   3.285e-02   3.315e-02   3.024e-04

-------------------------------Phase assemblage--------------------------------

                                                      Moles in assemblage
Phase               SI  log IAP  log K(T, P)   Initial       Final       Delta

Calcite          -0.00    -9.38     -9.38    1.000e+01   9.998e+00  -2.092e-03

-----------------------------Solution composition------------------------------

	Elements           Molality       Moles

	C                 1.600e-02   1.599e-02
	Ca                2.261e-03   2.260e-03

----------------------------Description of solution----------------------------

                                       pH  =   5.978      Charge balance
                                       pe  =   7.087      Adjusted to redox equilibrium
      Specific Conductance (µS/cm, 100°C)  = 1314
                          Density (g/cm³)  =   0.95871
                               Volume (L)  =   1.04331
                        Viscosity (mPa s)  =   0.28280
                        Activity of water  =   1.000
                 Ionic strength (mol/kgw)  =   6.766e-03
                       Mass of water (kg)  =   9.994e-01
                 Total alkalinity (eq/kg)  =   4.522e-03
                       Total CO2 (mol/kg)  =   1.600e-02
                         Temperature (°C)  = 100.00
                           Pressure (atm)  =  2.10
                  Electrical balance (eq)  =   2.290e-11
 Percent error, 100*(Cat-|An|)/(Cat+|An|)  =   0.00
                               Iterations  =  22
                                  Total H  = 1.109461e+02
                                  Total O  = 5.550731e+01

----------------------------Distribution of species----------------------------

                                               Log       Log       Log    mole V
   Species          Molality    Activity  Molality  Activity     Gamma   cm³/mol

   H+              1.152e-06   1.052e-06    -5.938    -5.978    -0.039      0.00
   OH-             6.092e-07   5.493e-07    -6.215    -6.260    -0.045     -5.79
   H2O             5.551e+01   9.997e-01     1.744    -0.000     0.000     18.80
C(-4)         0.000e+00
   CH4             0.000e+00   0.000e+00   -90.963   -90.962     0.001     41.06
C(4)          1.600e-02
   CO2             1.146e-02   1.147e-02    -1.941    -1.940     0.000     39.12
   HCO3-           4.509e-03   4.086e-03    -2.346    -2.389    -0.043     24.47
   (CO2)2          1.171e-05   1.172e-05    -4.931    -4.931     0.000     77.41
   CaCO3           6.084e-06   6.093e-06    -5.216    -5.215     0.001    -14.43
   CO3-2           4.035e-07   2.719e-07    -6.394    -6.566    -0.171     -7.59
   CaHCO3+         0.000e+00   0.000e+00  -115.318  -115.363    -0.044     (0)  
Ca            2.261e-03
   Ca+2            2.255e-03   1.518e-03    -2.647    -2.819    -0.172    -19.44
   CaCO3           6.084e-06   6.093e-06    -5.216    -5.215     0.001    -14.43
   CaOH+           2.650e-10   2.393e-10    -9.577    -9.621    -0.044     (0)  
   CaHCO3+         0.000e+00   0.000e+00  -115.318  -115.363    -0.044     (0)  
H(0)          5.772e-30
   H2              2.886e-30   2.891e-30   -29.540   -29.539     0.001     18.32
O(0)          9.874e-15
   O2              4.937e-15   4.945e-15   -14.307   -14.306     0.001     33.90

------------------------------Saturation indices-------------------------------

  Phase               SI** log IAP   log K(373 K,   2 atm)

  Aragonite        -0.22     -9.38   -9.16  CaCO3
  Calcite          -0.00     -9.38   -9.38  CaCO3
  CH4(g)          -87.96    -90.96   -3.01  CH4
  CO2(g)            0.04     -1.94   -1.98  CO2	 Pressure   1.1 atm, phi 0.996
  H2(g)           -26.45    -29.54   -3.09  H2
  H2O(g)           -0.00     -0.00    0.00  H2O	 Pressure   1.0 atm, phi 0.984
  O2(g)           -11.19    -14.31   -3.12  O2

**For a gas, SI = log10(fugacity). Fugacity = pressure * phi / 1 atm.
  For ideal gases, phi = 1.

Reaction step 3.

Using solution 1.	
Using pure phase assemblage 1.	
Using gas phase 1.	
Using reaction 1.	

Reaction 1.	

	  5.000e-02 moles of the following reaction have been added:

	                 Relative
	Reactant            moles

	CO2                  1.00000

	                 Relative
	Element             moles
	C                    1.00000
	O                    2.00000

-----------------------------------Gas phase-----------------------------------

Total pressure:  3.25      atmospheres          (Peng-Robinson calculation)
    Gas volume:   1.00e+00 liters
  Molar volume:   9.32e+00 liters/mole
   P * Vm / RT:  0.98763  (Compressibility Factor Z) 

                                                        Moles in gas
                                            ----------------------------------
Component         log P           P    phi     Initial       Final       Delta

CO2(g)             0.35   2.233e+00  0.992   3.627e-02   7.385e-02   3.758e-02
H2O(g)             0.01   1.012e+00  0.977   3.315e-02   3.347e-02   3.179e-04

-------------------------------Phase assemblage--------------------------------

                                                      Moles in assemblage
Phase               SI  log IAP  log K(T, P)   Initial       Final       Delta

Calcite          -0.00    -9.38     -9.38    9.998e+00   9.997e+00  -6.641e-04

-----------------------------Solution composition------------------------------

	Elements           Molality       Moles

	C                 2.909e-02   2.908e-02
	Ca                2.926e-03   2.924e-03

----------------------------Description of solution----------------------------

                                       pH  =   5.779      Charge balance
                                       pe  =   7.204      Adjusted to redox equilibrium
      Specific Conductance (µS/cm, 100°C)  = 1681
                          Density (g/cm³)  =   0.95898
                               Volume (L)  =   1.04366
                        Viscosity (mPa s)  =   0.28317
                        Activity of water  =   0.999
                 Ionic strength (mol/kgw)  =   8.760e-03
                       Mass of water (kg)  =   9.993e-01
                 Total alkalinity (eq/kg)  =   5.851e-03
                       Total CO2 (mol/kg)  =   2.909e-02
                         Temperature (°C)  = 100.00
                           Pressure (atm)  =  3.25
                  Electrical balance (eq)  =   6.557e-11
 Percent error, 100*(Cat-|An|)/(Cat+|An|)  =   0.00
                               Iterations  =  21
                                  Total H  = 1.109455e+02
                                  Total O  = 5.553382e+01

----------------------------Distribution of species----------------------------

                                               Log       Log       Log    mole V
   Species          Molality    Activity  Molality  Activity     Gamma   cm³/mol

   H+              1.838e-06   1.663e-06    -5.736    -5.779    -0.044      0.00
   OH-             3.908e-07   3.479e-07    -6.408    -6.459    -0.050     -5.77
   H2O             5.551e+01   9.995e-01     1.744    -0.000     0.000     18.80
C(-4)         0.000e+00
   CH4             0.000e+00   0.000e+00   -90.006   -90.005     0.001     41.06
C(4)          2.909e-02
   CO2             2.315e-02   2.318e-02    -1.635    -1.635     0.001     39.12
   HCO3-           5.840e-03   5.231e-03    -2.234    -2.281    -0.048     24.52
   (CO2)2          4.779e-05   4.786e-05    -4.321    -4.320     0.001     77.40
   CaCO3           6.093e-06   6.105e-06    -5.215    -5.214     0.001    -14.42
   CO3-2           3.428e-07   2.206e-07    -6.465    -6.656    -0.192     -7.48
   CaHCO3+         0.000e+00   0.000e+00  -115.114  -115.163    -0.050     (0)  
Ca            2.926e-03
   Ca+2            2.919e-03   1.876e-03    -2.535    -2.727    -0.192    -19.36
   CaCO3           6.093e-06   6.105e-06    -5.215    -5.214     0.001    -14.42
   CaOH+           2.098e-10   1.871e-10    -9.678    -9.728    -0.050     (0)  
   CaHCO3+         0.000e+00   0.000e+00  -115.114  -115.163    -0.050     (0)  
H(0)          8.391e-30
   H2              4.196e-30   4.205e-30   -29.377   -29.376     0.001     18.31
O(0)          4.658e-15
   O2              2.329e-15   2.334e-15   -14.633   -14.632     0.001     33.89

------------------------------Saturation indices-------------------------------

  Phase               SI** log IAP   log K(373 K,   3 atm)

  Aragonite        -0.22     -9.38   -9.16  CaCO3
  Calcite          -0.00     -9.38   -9.38  CaCO3
  CH4(g)          -87.00    -90.01   -3.01  CH4
  CO2(g)            0.35     -1.63   -1.98  CO2	 Pressure   2.2 atm, phi 0.992
  H2(g)           -26.29    -29.38   -3.09  H2
  H2O(g)           -0.00     -0.00    0.00  H2O	 Pressure   1.0 atm, phi 0.977
  O2(g)           -11.52    -14.63   -3.12  O2

**For a gas, SI = log10(fugacity). Fugacity = pressure * phi / 1 atm.
  For ideal gases, phi = 1.

Reaction step 4.

Using solution 1.	
Using pure phase assemblage 1.	
Using gas phase 1.	
Using reaction 1.	

Reaction 1.	

	  5.000e-02 moles of the following reaction have been added:

	                 Relative
	Reactant            moles

	CO2                  1.00000

	                 Relative
	Element             moles
	C                    1.00000
	O                    2.00000

-----------------------------------Gas phase-----------------------------------

Total pressure:  4.39      atmospheres          (Peng-Robinson calculation)
    Gas volume:   1.00e+00 liters
  Molar volume:   6.87e+00 liters/mole
   P * Vm / RT:  0.98481  (Compressibility Factor Z) 

                                                        Moles in gas
                                            ----------------------------------
Component         log P           P    phi     Initial       Final       Delta

CO2(g)             0.53   3.368e+00  0.989   7.385e-02   1.117e-01   3.783e-02
H2O(g)             0.01   1.019e+00  0.971   3.347e-02   3.379e-02   3.224e-04

-------------------------------Phase assemblage--------------------------------

                                                      Moles in assemblage
Phase               SI  log IAP  log K(T, P)   Initial       Final       Delta

Calcite          -0.00    -9.38     -9.38    9.997e+00   9.997e+00  -4.739e-04

-----------------------------Solution composition------------------------------

	Elements           Molality       Moles

	C                 4.175e-02   4.172e-02
	Ca                3.400e-03   3.397e-03

----------------------------Description of solution----------------------------

                                       pH  =   5.665      Charge balance
                                       pe  =   7.379      Adjusted to redox equilibrium
      Specific Conductance (µS/cm, 100°C)  = 1938
                          Density (g/cm³)  =   0.95916
                               Volume (L)  =   1.04405
                        Viscosity (mPa s)  =   0.28343
                        Activity of water  =   0.999
                 Ionic strength (mol/kgw)  =   1.018e-02
                       Mass of water (kg)  =   9.993e-01
                 Total alkalinity (eq/kg)  =   6.799e-03
                       Total CO2 (mol/kg)  =   4.175e-02
                         Temperature (°C)  = 100.00
                           Pressure (atm)  =  4.39
                  Electrical balance (eq)  =   1.147e-10
 Percent error, 100*(Cat-|An|)/(Cat+|An|)  =   0.00
                               Iterations  =  21
                                  Total H  = 1.109449e+02
                                  Total O  = 5.555926e+01

----------------------------Distribution of species----------------------------

                                               Log       Log       Log    mole V
   Species          Molality    Activity  Molality  Activity     Gamma   cm³/mol

   H+              2.407e-06   2.164e-06    -5.619    -5.665    -0.046      0.00
   OH-             3.029e-07   2.675e-07    -6.519    -6.573    -0.054     -5.76
   H2O             5.551e+01   9.992e-01     1.744    -0.000     0.000     18.80
C(-4)         0.000e+00
   CH4             0.000e+00   0.000e+00   -90.314   -90.313     0.001     41.05
C(4)          4.175e-02
   CO2             3.474e-02   3.479e-02    -1.459    -1.459     0.001     39.12
   HCO3-           6.789e-03   6.037e-03    -2.168    -2.219    -0.051     24.56
   (CO2)2          1.076e-04   1.078e-04    -3.968    -3.967     0.001     77.40
   CaCO3           6.102e-06   6.117e-06    -5.215    -5.213     0.001    -14.41
   CO3-2           3.133e-07   1.958e-07    -6.504    -6.708    -0.204     -7.41
   CaHCO3+         0.000e+00   0.000e+00  -114.995  -115.048    -0.053     (0)  
Ca            3.400e-03
   Ca+2            3.394e-03   2.118e-03    -2.469    -2.674    -0.205    -19.31
   CaCO3           6.102e-06   6.117e-06    -5.215    -5.213     0.001    -14.41
   CaOH+           1.834e-10   1.623e-10    -9.737    -9.790    -0.053     (0)  
   CaHCO3+         0.000e+00   0.000e+00  -114.995  -115.048    -0.053     (0)  
H(0)          6.347e-30
   H2              3.173e-30   3.181e-30   -29.498   -29.497     0.001     18.31
O(0)          8.119e-15
   O2              4.060e-15   4.069e-15   -14.392   -14.390     0.001     33.89

------------------------------Saturation indices-------------------------------

  Phase               SI** log IAP   log K(373 K,   4 atm)

  Aragonite        -0.22     -9.38   -9.16  CaCO3
  Calcite          -0.00     -9.38   -9.38  CaCO3
  CH4(g)          -87.31    -90.31   -3.01  CH4
  CO2(g)            0.52     -1.46   -1.98  CO2	 Pressure   3.4 atm, phi 0.989
  H2(g)           -26.41    -29.50   -3.09  H2
  H2O(g)           -0.00     -0.00    0.00  H2O	 Pressure   1.0 atm, phi 0.971
  O2(g)           -11.27    -14.39   -3.12  O2

**For a gas, SI = log10(fugacity). Fugacity = pressure * phi / 1 atm.
  For ideal gases, phi = 1.

Reaction step 5.

Using solution 1.	
Using pure phase assemblage 1.	
Using gas phase 1.	
Using reaction 1.	

Reaction 1.	

	  5.000e-02 moles of the following reaction have been added:

	                 Relative
	Reactant            moles

	CO2                  1.00000

	                 Relative
	Element             moles
	C                    1.00000
	O                    2.00000

-----------------------------------Gas phase-----------------------------------

Total pressure:  5.53      atmospheres          (Peng-Robinson calculation)
    Gas volume:   1.00e+00 liters
  Molar volume:   5.44e+00 liters/mole
   P * Vm / RT:  0.98187  (Compressibility Factor Z) 

                                                        Moles in gas
                                            ----------------------------------
Component         log P           P    phi     Initial       Final       Delta

CO2(g)             0.65   4.500e+00  0.986   1.117e-01   1.497e-01   3.800e-02
H2O(g)             0.01   1.026e+00  0.965   3.379e-02   3.412e-02   3.262e-04

-------------------------------Phase assemblage--------------------------------

                                                      Moles in assemblage
Phase               SI  log IAP  log K(T, P)   Initial       Final       Delta

Calcite          -0.00    -9.38     -9.38    9.997e+00   9.996e+00  -3.811e-04

-----------------------------Solution composition------------------------------

	Elements           Molality       Moles

	C                 5.414e-02   5.410e-02
	Ca                3.781e-03   3.779e-03

----------------------------Description of solution----------------------------

                                       pH  =   5.584      Charge balance
                                       pe  =   7.490      Adjusted to redox equilibrium
      Specific Conductance (µS/cm, 100°C)  = 2143
                          Density (g/cm³)  =   0.95934
                               Volume (L)  =   1.04445
                        Viscosity (mPa s)  =   0.28365
                        Activity of water  =   0.999
                 Ionic strength (mol/kgw)  =   1.133e-02
                       Mass of water (kg)  =   9.993e-01
                 Total alkalinity (eq/kg)  =   7.562e-03
                       Total CO2 (mol/kg)  =   5.414e-02
                         Temperature (°C)  = 100.00
                           Pressure (atm)  =  5.53
                  Electrical balance (eq)  =   1.677e-10
 Percent error, 100*(Cat-|An|)/(Cat+|An|)  =   0.00
                               Iterations  =  21
                                  Total H  = 1.109442e+02
                                  Total O  = 5.558407e+01

----------------------------Distribution of species----------------------------

                                               Log       Log       Log    mole V
   Species          Molality    Activity  Molality  Activity     Gamma   cm³/mol

   H+              2.909e-06   2.604e-06    -5.536    -5.584    -0.048      0.00
   OH-             2.534e-07   2.224e-07    -6.596    -6.653    -0.057     -5.75
   H2O             5.551e+01   9.990e-01     1.744    -0.000     0.000     18.79
C(-4)         0.000e+00
   CH4             0.000e+00   0.000e+00   -90.437   -90.436     0.001     41.05
C(4)          5.414e-02
   CO2             4.620e-02   4.628e-02    -1.335    -1.335     0.001     39.11
   HCO3-           7.552e-03   6.680e-03    -2.122    -2.175    -0.053     24.58
   (CO2)2          1.904e-04   1.907e-04    -3.720    -3.720     0.001     77.39
   CaCO3           6.112e-06   6.128e-06    -5.214    -5.213     0.001    -14.41
   CO3-2           2.947e-07   1.803e-07    -6.531    -6.744    -0.213     -7.35
   CaHCO3+         0.000e+00   0.000e+00  -114.912  -114.967    -0.056     (0)  
Ca            3.781e-03
   Ca+2            3.775e-03   2.305e-03    -2.423    -2.637    -0.214    -19.27
   CaCO3           6.112e-06   6.128e-06    -5.214    -5.213     0.001    -14.41
   CaOH+           1.668e-10   1.468e-10    -9.778    -9.833    -0.056     (0)  
   CaHCO3+         0.000e+00   0.000e+00  -114.912  -114.967    -0.056     (0)  
H(0)          5.501e-30
   H2              2.751e-30   2.758e-30   -29.561   -29.559     0.001     18.31
O(0)          1.078e-14
   O2              5.391e-15   5.405e-15   -14.268   -14.267     0.001     33.88

------------------------------Saturation indices-------------------------------

  Phase               SI** log IAP   log K(373 K,   6 atm)

  Aragonite        -0.22     -9.38   -9.16  CaCO3
  Calcite          -0.00     -9.38   -9.38  CaCO3
  CH4(g)          -87.43    -90.44   -3.01  CH4
  CO2(g)            0.65     -1.33   -1.98  CO2	 Pressure   4.5 atm, phi 0.986
  H2(g)           -26.47    -29.56   -3.09  H2
  H2O(g)           -0.00     -0.00    0.00  H2O	 Pressure   1.0 atm, phi 0.965
  O2(g)           -11.15    -14.27   -3.12  O2

**For a gas, SI = log10(fugacity). Fugacity = pressure * phi / 1 atm.
  For ideal gases, phi = 1.

Reaction step 6.

Using solution 1.	
Using pure phase assemblage 1.	
Using gas phase 1.	
Using reaction 1.	

Reaction 1.	

	  1.000e-01 moles of the following reaction have been added:

	                 Relative
	Reactant            moles

	CO2                  1.00000

	                 Relative
	Element             moles
	C                    1.00000
	O                    2.00000

-----------------------------------Gas phase-----------------------------------

Total pressure:  7.80      atmospheres          (Peng-Robinson calculation)
    Gas volume:   1.00e+00 liters
  Molar volume:   3.83e+00 liters/mole
   P * Vm / RT:  0.97588  (Compressibility Factor Z) 

                                                        Moles in gas
                                            ----------------------------------
Component         log P           P    phi     Initial       Final       Delta

CO2(g)             0.83   6.757e+00  0.980   1.497e-01   2.261e-01   7.644e-02
H2O(g)             0.02   1.039e+00  0.954   3.412e-02   3.478e-02   6.626e-04

-------------------------------Phase assemblage--------------------------------

                                                      Moles in assemblage
Phase               SI  log IAP  log K(T, P)   Initial       Final       Delta

Calcite          -0.00    -9.38     -9.38    9.996e+00   9.996e+00  -6.084e-04

-----------------------------Solution composition------------------------------

	Elements           Molality       Moles

	C                 7.833e-02   7.827e-02
	Ca                4.390e-03   4.387e-03

----------------------------Description of solution----------------------------

                                       pH  =   5.473      Charge balance
                                       pe  =   7.617      Adjusted to redox equilibrium
      Specific Conductance (µS/cm, 100°C)  = 2466
                          Density (g/cm³)  =   0.95967
                               Volume (L)  =   1.04522
                        Viscosity (mPa s)  =   0.28403
                        Activity of water  =   0.999
                 Ionic strength (mol/kgw)  =   1.316e-02
                       Mass of water (kg)  =   9.993e-01
                 Total alkalinity (eq/kg)  =   8.780e-03
                       Total CO2 (mol/kg)  =   7.833e-02
                         Temperature (°C)  = 100.00
                           Pressure (atm)  =  7.80
                  Electrical balance (eq)  =   2.027e-10
 Percent error, 100*(Cat-|An|)/(Cat+|An|)  =   0.00
                               Iterations  =  23
                                  Total H  = 1.109429e+02
                                  Total O  = 5.563237e+01

----------------------------Distribution of species----------------------------

                                               Log       Log       Log    mole V
   Species          Molality    Activity  Molality  Activity     Gamma   cm³/mol

   H+              3.787e-06   3.369e-06    -5.422    -5.473    -0.051      0.00
   OH-             1.979e-07   1.722e-07    -6.704    -6.764    -0.060     -5.74
   H2O             5.551e+01   9.986e-01     1.744    -0.001     0.000     18.79
C(-4)         0.000e+00
   CH4             0.000e+00   0.000e+00   -90.382   -90.381     0.001     41.05
C(4)          7.833e-02
   CO2             6.871e-02   6.884e-02    -1.163    -1.162     0.001     39.11
   HCO3-           8.771e-03   7.698e-03    -2.057    -2.114    -0.057     24.63
   (CO2)2          4.212e-04   4.221e-04    -3.375    -3.375     0.001     77.37
   CaCO3           6.133e-06   6.152e-06    -5.212    -5.211     0.001    -14.39
   CO3-2           2.715e-07   1.610e-07    -6.566    -6.793    -0.227     -7.26
   CaHCO3+         0.000e+00   0.000e+00  -114.795  -114.854    -0.059     (0)  
Ca            4.390e-03
   Ca+2            4.384e-03   2.594e-03    -2.358    -2.586    -0.228    -19.20
   CaCO3           6.133e-06   6.152e-06    -5.212    -5.211     0.001    -14.39
   CaOH+           1.463e-10   1.276e-10    -9.835    -9.894    -0.059     (0)  
   CaHCO3+         0.000e+00   0.000e+00  -114.795  -114.854    -0.059     (0)  
H(0)          5.136e-30
   H2              2.568e-30   2.576e-30   -29.590   -29.589     0.001     18.31
O(0)          1.231e-14
   O2              6.156e-15   6.175e-15   -14.211   -14.209     0.001     33.88

------------------------------Saturation indices-------------------------------

  Phase               SI** log IAP   log K(373 K,   8 atm)

  Aragonite        -0.22     -9.38   -9.16  CaCO3
  Calcite          -0.00     -9.38   -9.38  CaCO3
  CH4(g)          -87.37    -90.38   -3.01  CH4
  CO2(g)            0.82     -1.16   -1.98  CO2	 Pressure   6.8 atm, phi 0.980
  H2(g)           -26.50    -29.59   -3.09  H2
  H2O(g)           -0.00     -0.00    0.00  H2O	 Pressure   1.0 atm, phi 0.954
  O2(g)           -11.09    -14.21   -3.12  O2

**For a gas, SI = log10(fugacity). Fugacity = pressure * phi / 1 atm.
  For ideal gases, phi = 1.

Reaction step 7.

Using solution 1.	
Using pure phase assemblage 1.	
Using gas phase 1.	
Using reaction 1.	

Reaction 1.	

	  1.000e-01 moles of the following reaction have been added:

	                 Relative
	Reactant            moles

	CO2                  1.00000

	                 Relative
	Element             moles
	C                    1.00000
	O                    2.00000

-----------------------------------Gas phase-----------------------------------

Total pressure: 10.05      atmospheres          (Peng-Robinson calculation)
    Gas volume:   1.00e+00 liters
  Molar volume:   2.95e+00 liters/mole
   P * Vm / RT:  0.96984  (Compressibility Factor Z) 

                                                        Moles in gas
                                            ----------------------------------
Component         log P           P    phi     Initial       Final       Delta

CO2(g)             0.95   9.000e+00  0.974   2.261e-01   3.031e-01   7.694e-02
H2O(g)             0.02   1.053e+00  0.942   3.478e-02   3.546e-02   6.758e-04

-------------------------------Phase assemblage--------------------------------

                                                      Moles in assemblage
Phase               SI  log IAP  log K(T, P)   Initial       Final       Delta

Calcite          -0.00    -9.38     -9.38    9.996e+00   9.995e+00  -4.873e-04

-----------------------------Solution composition------------------------------

	Elements           Molality       Moles

	C                 1.019e-01   1.018e-01
	Ca                4.878e-03   4.874e-03

----------------------------Description of solution----------------------------

                                       pH  =   5.394      Charge balance
                                       pe  =   7.780      Adjusted to redox equilibrium
      Specific Conductance (µS/cm, 100°C)  = 2720
                          Density (g/cm³)  =   0.95998
                               Volume (L)  =   1.04598
                        Viscosity (mPa s)  =   0.28437
                        Activity of water  =   0.998
                 Ionic strength (mol/kgw)  =   1.462e-02
                       Mass of water (kg)  =   9.993e-01
                 Total alkalinity (eq/kg)  =   9.755e-03
                       Total CO2 (mol/kg)  =   1.019e-01
                         Temperature (°C)  = 100.00
                           Pressure (atm)  = 10.05
                  Electrical balance (eq)  =   2.391e-10
 Percent error, 100*(Cat-|An|)/(Cat+|An|)  =   0.00
                               Iterations  =  23
                                  Total H  = 1.109415e+02
                                  Total O  = 5.567927e+01

----------------------------Distribution of species----------------------------

                                               Log       Log       Log    mole V
   Species          Molality    Activity  Molality  Activity     Gamma   cm³/mol

   H+              4.554e-06   4.033e-06    -5.342    -5.394    -0.053      0.00
   OH-             1.667e-07   1.440e-07    -6.778    -6.842    -0.063     -5.74
   H2O             5.551e+01   9.982e-01     1.744    -0.001     0.000     18.79
C(-4)         0.000e+00
   CH4             0.000e+00   0.000e+00   -90.949   -90.947     0.001     41.05
C(4)          1.019e-01
   CO2             9.067e-02   9.087e-02    -1.043    -1.042     0.001     39.10
   HCO3-           9.747e-03   8.506e-03    -2.011    -2.070    -0.059     24.67
   (CO2)2          7.338e-04   7.354e-04    -3.134    -3.133     0.001     77.36
   CaCO3           6.154e-06   6.175e-06    -5.211    -5.209     0.001    -14.38
   CO3-2           2.571e-07   1.489e-07    -6.590    -6.827    -0.237     -7.19
   CaHCO3+         0.000e+00   0.000e+00  -114.713  -114.775    -0.062     (0)  
Ca            4.878e-03
   Ca+2            4.872e-03   2.817e-03    -2.312    -2.550    -0.238    -19.15
   CaCO3           6.154e-06   6.175e-06    -5.211    -5.209     0.001    -14.38
   CaOH+           1.335e-10   1.157e-10    -9.875    -9.937    -0.062     (0)  
   CaHCO3+         0.000e+00   0.000e+00  -114.713  -114.775    -0.062     (0)  
H(0)          3.454e-30
   H2              1.727e-30   1.733e-30   -29.763   -29.761     0.002     18.30
O(0)          2.711e-14
   O2              1.355e-14   1.360e-14   -13.868   -13.866     0.001     33.87

------------------------------Saturation indices-------------------------------

  Phase               SI** log IAP   log K(373 K,  10 atm)

  Aragonite        -0.22     -9.38   -9.16  CaCO3
  Calcite          -0.00     -9.38   -9.38  CaCO3
  CH4(g)          -87.94    -90.95   -3.01  CH4
  CO2(g)            0.94     -1.04   -1.98  CO2	 Pressure   9.0 atm, phi 0.974
  H2(g)           -26.67    -29.76   -3.09  H2
  H2O(g)           -0.00     -0.00    0.00  H2O	 Pressure   1.1 atm, phi 0.942
  O2(g)           -10.75    -13.87   -3.12  O2

**For a gas, SI = log10(fugacity). Fugacity = pressure * phi / 1 atm.
  For ideal gases, phi = 1.

Reaction step 8.

Using solution 1.	
Using pure phase assemblage 1.	
Using gas phase 1.	
Using reaction 1.	

Reaction 1.	

	  1.000e-01 moles of the following reaction have been added:

	                 Relative
	Reactant            moles

	CO2                  1.00000

	                 Relative
	Element             moles
	C                    1.00000
	O                    2.00000

-----------------------------------Gas phase-----------------------------------

Total pressure: 12.30      atmospheres          (Peng-Robinson calculation)
    Gas volume:   1.00e+00 liters
  Molar volume:   2.40e+00 liters/mole
   P * Vm / RT:  0.96380  (Compressibility Factor Z) 

                                                        Moles in gas
                                            ----------------------------------
Component         log P           P    phi     Initial       Final       Delta

CO2(g)             1.05   1.123e+01  0.968   3.031e-01   3.805e-01   7.741e-02
H2O(g)             0.03   1.067e+00  0.931   3.546e-02   3.615e-02   6.887e-04

-------------------------------Phase assemblage--------------------------------

                                                      Moles in assemblage
Phase               SI  log IAP  log K(T, P)   Initial       Final       Delta

Calcite          -0.00    -9.38     -9.38    9.995e+00   9.995e+00  -4.123e-04

-----------------------------Solution composition------------------------------

	Elements           Molality       Moles

	C                 1.249e-01   1.248e-01
	Ca                5.290e-03   5.286e-03

----------------------------Description of solution----------------------------

                                       pH  =   5.335      Charge balance
                                       pe  =   7.844      Adjusted to redox equilibrium
      Specific Conductance (µS/cm, 100°C)  = 2932
                          Density (g/cm³)  =   0.96028
                               Volume (L)  =   1.04672
                        Viscosity (mPa s)  =   0.28468
                        Activity of water  =   0.998
                 Ionic strength (mol/kgw)  =   1.586e-02
                       Mass of water (kg)  =   9.993e-01
                 Total alkalinity (eq/kg)  =   1.058e-02
                       Total CO2 (mol/kg)  =   1.249e-01
                         Temperature (°C)  = 100.00
                           Pressure (atm)  = 12.30
                  Electrical balance (eq)  =   2.766e-10
 Percent error, 100*(Cat-|An|)/(Cat+|An|)  =   0.00
                               Iterations  =  23
                                  Total H  = 1.109401e+02
                                  Total O  = 5.572500e+01

----------------------------Distribution of species----------------------------

                                               Log       Log       Log    mole V
   Species          Molality    Activity  Molality  Activity     Gamma   cm³/mol

   H+              5.244e-06   4.627e-06    -5.280    -5.335    -0.054      0.00
   OH-             1.462e-07   1.257e-07    -6.835    -6.901    -0.066     -5.74
   H2O             5.551e+01   9.978e-01     1.744    -0.001     0.000     18.79
C(-4)         0.000e+00
   CH4             0.000e+00   0.000e+00   -90.889   -90.888     0.002     41.05
C(4)          1.249e-01
   CO2             1.121e-01   1.124e-01    -0.950    -0.949     0.001     39.09
   HCO3-           1.057e-02   9.185e-03    -1.976    -2.037    -0.061     24.70
   (CO2)2          1.122e-03   1.124e-03    -2.950    -2.949     0.001     77.34
   CaCO3           6.176e-06   6.198e-06    -5.209    -5.208     0.002    -14.36
   CO3-2           2.470e-07   1.405e-07    -6.607    -6.852    -0.245     -7.12
   CaHCO3+         0.000e+00   0.000e+00  -114.650  -114.714    -0.064     (0)  
Ca            5.290e-03
   Ca+2            5.284e-03   3.000e-03    -2.277    -2.523    -0.246    -19.11
   CaCO3           6.176e-06   6.198e-06    -5.209    -5.208     0.002    -14.36
   CaOH+           1.245e-10   1.074e-10    -9.905    -9.969    -0.064     (0)  
   CaHCO3+         0.000e+00   0.000e+00  -114.650  -114.714    -0.064     (0)  
H(0)          3.386e-30
   H2              1.693e-30   1.699e-30   -29.771   -29.770     0.002     18.30
O(0)          2.809e-14
   O2              1.405e-14   1.410e-14   -13.852   -13.851     0.002     33.86

------------------------------Saturation indices-------------------------------

  Phase               SI** log IAP   log K(373 K,  12 atm)

  Aragonite        -0.22     -9.38   -9.16  CaCO3
  Calcite          -0.00     -9.38   -9.38  CaCO3
  CH4(g)          -87.88    -90.89   -3.01  CH4
  CO2(g)            1.04     -0.95   -1.99  CO2	 Pressure  11.2 atm, phi 0.968
  H2(g)           -26.68    -29.77   -3.09  H2
  H2O(g)           -0.00     -0.00    0.00  H2O	 Pressure   1.1 atm, phi 0.931
  O2(g)           -10.73    -13.85   -3.12  O2

**For a gas, SI = log10(fugacity). Fugacity = pressure * phi / 1 atm.
  For ideal gases, phi = 1.

Reaction step 9.

Using solution 1.	
Using pure phase assemblage 1.	
Using gas phase 1.	
Using reaction 1.	

Reaction 1.	

	  1.000e-01 moles of the following reaction have been added:

	                 Relative
	Reactant            moles

	CO2                  1.00000

	                 Relative
	Element             moles
	C                    1.00000
	O                    2.00000

-----------------------------------Gas phase-----------------------------------

Total pressure: 14.52      atmospheres          (Peng-Robinson calculation)
    Gas volume:   1.00e+00 liters
  Molar volume:   2.02e+00 liters/mole
   P * Vm / RT:  0.95777  (Compressibility Factor Z) 

                                                        Moles in gas
                                            ----------------------------------
Component         log P           P    phi     Initial       Final       Delta

CO2(g)             1.13   1.344e+01  0.962   3.805e-01   4.583e-01   7.786e-02
H2O(g)             0.03   1.081e+00  0.920   3.615e-02   3.685e-02   7.017e-04

-------------------------------Phase assemblage--------------------------------

                                                      Moles in assemblage
Phase               SI  log IAP  log K(T, P)   Initial       Final       Delta

Calcite          -0.00    -9.37     -9.37    9.995e+00   9.994e+00  -3.601e-04

-----------------------------Solution composition------------------------------

	Elements           Molality       Moles

	C                 1.474e-01   1.473e-01
	Ca                5.651e-03   5.647e-03

----------------------------Description of solution----------------------------

                                       pH  =   5.287      Charge balance
                                       pe  =   7.893      Adjusted to redox equilibrium
      Specific Conductance (µS/cm, 100°C)  = 3115
                          Density (g/cm³)  =   0.96057
                               Volume (L)  =   1.04744
                        Viscosity (mPa s)  =   0.28496
                        Activity of water  =   0.997
                 Ionic strength (mol/kgw)  =   1.694e-02
                       Mass of water (kg)  =   9.992e-01
                 Total alkalinity (eq/kg)  =   1.130e-02
                       Total CO2 (mol/kg)  =   1.474e-01
                         Temperature (°C)  = 100.00
                           Pressure (atm)  = 14.52
                  Electrical balance (eq)  =   3.151e-10
 Percent error, 100*(Cat-|An|)/(Cat+|An|)  =   0.00
                               Iterations  =  23
                                  Total H  = 1.109387e+02
                                  Total O  = 5.576967e+01

----------------------------Distribution of species----------------------------

                                               Log       Log       Log    mole V
   Species          Molality    Activity  Molality  Activity     Gamma   cm³/mol

   H+              5.876e-06   5.169e-06    -5.231    -5.287    -0.056      0.00
   OH-             1.316e-07   1.127e-07    -6.881    -6.948    -0.068     -5.74
   H2O             5.551e+01   9.974e-01     1.744    -0.001     0.000     18.79
C(-4)         0.000e+00
   CH4             0.000e+00   0.000e+00   -90.823   -90.821     0.002     41.04
C(4)          1.474e-01
   CO2             1.330e-01   1.333e-01    -0.876    -0.875     0.001     39.08
   HCO3-           1.129e-02   9.775e-03    -1.947    -2.010    -0.063     24.73
   (CO2)2          1.579e-03   1.583e-03    -2.802    -2.800     0.001     77.33
   CaCO3           6.197e-06   6.221e-06    -5.208    -5.206     0.002    -14.35
   CO3-2           2.394e-07   1.341e-07    -6.621    -6.872    -0.252     -7.06
   CaHCO3+         0.000e+00   0.000e+00  -114.599  -114.665    -0.066     (0)  
Ca            5.651e-03
   Ca+2            5.645e-03   3.156e-03    -2.248    -2.501    -0.252    -19.07
   CaCO3           6.197e-06   6.221e-06    -5.208    -5.206     0.002    -14.35
   CaOH+           1.176e-10   1.011e-10    -9.929    -9.995    -0.066     (0)  
   CaHCO3+         0.000e+00   0.000e+00  -114.599  -114.665    -0.066     (0)  
H(0)          3.367e-30
   H2              1.684e-30   1.690e-30   -29.774   -29.772     0.002     18.30
O(0)          2.830e-14
   O2              1.415e-14   1.420e-14   -13.849   -13.848     0.002     33.85

------------------------------Saturation indices-------------------------------

  Phase               SI** log IAP   log K(373 K,  15 atm)

  Aragonite        -0.22     -9.37   -9.15  CaCO3
  Calcite          -0.00     -9.37   -9.37  CaCO3
  CH4(g)          -87.81    -90.82   -3.01  CH4
  CO2(g)            1.11     -0.88   -1.99  CO2	 Pressure  13.4 atm, phi 0.962
  H2(g)           -26.68    -29.77   -3.09  H2
  H2O(g)           -0.00     -0.00    0.00  H2O	 Pressure   1.1 atm, phi 0.920
  O2(g)           -10.73    -13.85   -3.12  O2

**For a gas, SI = log10(fugacity). Fugacity = pressure * phi / 1 atm.
  For ideal gases, phi = 1.

Reaction step 10.

Using solution 1.	
Using pure phase assemblage 1.	
Using gas phase 1.	
Using reaction 1.	

Reaction 1.	

	  1.000e-01 moles of the following reaction have been added:

	                 Relative
	Reactant            moles

	CO2                  1.00000

	                 Relative
	Element             moles
	C                    1.00000
	O                    2.00000

-----------------------------------Gas phase-----------------------------------

Total pressure: 16.73      atmospheres          (Peng-Robinson calculation)
    Gas volume:   1.00e+00 liters
  Molar volume:   1.74e+00 liters/mole
   P * Vm / RT:  0.95178  (Compressibility Factor Z) 

                                                        Moles in gas
                                            ----------------------------------
Component         log P           P    phi     Initial       Final       Delta

CO2(g)             1.19   1.564e+01  0.956   4.583e-01   5.366e-01   7.829e-02
H2O(g)             0.04   1.095e+00  0.909   3.685e-02   3.756e-02   7.147e-04

-------------------------------Phase assemblage--------------------------------

                                                      Moles in assemblage
Phase               SI  log IAP  log K(T, P)   Initial       Final       Delta

Calcite          -0.00    -9.37     -9.37    9.994e+00   9.994e+00  -3.212e-04

-----------------------------Solution composition------------------------------

	Elements           Molality       Moles

	C                 1.695e-01   1.694e-01
	Ca                5.972e-03   5.968e-03

----------------------------Description of solution----------------------------

                                       pH  =   5.246      Charge balance
                                       pe  =   7.933      Adjusted to redox equilibrium
      Specific Conductance (µS/cm, 100°C)  = 3277
                          Density (g/cm³)  =   0.96085
                               Volume (L)  =   1.04815
                        Viscosity (mPa s)  =   0.28523
                        Activity of water  =   0.997
                 Ionic strength (mol/kgw)  =   1.791e-02
                       Mass of water (kg)  =   9.992e-01
                 Total alkalinity (eq/kg)  =   1.194e-02
                       Total CO2 (mol/kg)  =   1.695e-01
                         Temperature (°C)  = 100.00
                           Pressure (atm)  = 16.73
                  Electrical balance (eq)  =   3.544e-10
 Percent error, 100*(Cat-|An|)/(Cat+|An|)  =   0.00
                               Iterations  =  23
                                  Total H  = 1.109373e+02
                                  Total O  = 5.581333e+01

----------------------------Distribution of species----------------------------

                                               Log       Log       Log    mole V
   Species          Molality    Activity  Molality  Activity     Gamma   cm³/mol

   H+              6.462e-06   5.670e-06    -5.190    -5.246    -0.057      0.00
   OH-             1.206e-07   1.029e-07    -6.919    -6.988    -0.069     -5.74
   H2O             5.551e+01   9.971e-01     1.744    -0.001     0.000     18.78
C(-4)         0.000e+00
   CH4             0.000e+00   0.000e+00   -90.762   -90.760     0.002     41.04
C(4)          1.695e-01
   CO2             1.533e-01   1.538e-01    -0.814    -0.813     0.001     39.08
   HCO3-           1.194e-02   1.030e-02    -1.923    -1.987    -0.064     24.75
   (CO2)2          2.100e-03   2.106e-03    -2.678    -2.677     0.001     77.31
   CaCO3           6.219e-06   6.244e-06    -5.206    -5.205     0.002    -14.34
   CO3-2           2.335e-07   1.291e-07    -6.632    -6.889    -0.257     -7.00
   CaHCO3+         0.000e+00   0.000e+00  -114.556  -114.624    -0.068     (0)  
Ca            5.972e-03
   Ca+2            5.966e-03   3.293e-03    -2.224    -2.482    -0.258    -19.03
   CaCO3           6.219e-06   6.244e-06    -5.206    -5.205     0.002    -14.34
   CaOH+           1.123e-10   9.610e-11    -9.950   -10.017    -0.068     (0)  
   CaHCO3+         0.000e+00   0.000e+00  -114.556  -114.624    -0.068     (0)  
H(0)          3.362e-30
   H2              1.681e-30   1.688e-30   -29.774   -29.773     0.002     18.29
O(0)          2.828e-14
   O2              1.414e-14   1.420e-14   -13.850   -13.848     0.002     33.85

------------------------------Saturation indices-------------------------------

  Phase               SI** log IAP   log K(373 K,  17 atm)

  Aragonite        -0.22     -9.37   -9.15  CaCO3
  Calcite          -0.00     -9.37   -9.37  CaCO3
  CH4(g)          -87.75    -90.76   -3.01  CH4
  CO2(g)            1.17     -0.81   -1.99  CO2	 Pressure  15.6 atm, phi 0.956
  H2(g)           -26.68    -29.77   -3.09  H2
  H2O(g)           -0.00     -0.00    0.00  H2O	 Pressure   1.1 atm, phi 0.909
  O2(g)           -10.73    -13.85   -3.12  O2

**For a gas, SI = log10(fugacity). Fugacity = pressure * phi / 1 atm.
  For ideal gases, phi = 1.

Reaction step 11.

Using solution 1.	
Using pure phase assemblage 1.	
Using gas phase 1.	
Using reaction 1.	

Reaction 1.	

	  3.000e-01 moles of the following reaction have been added:

	                 Relative
	Reactant            moles

	CO2                  1.00000

	                 Relative
	Element             moles
	C                    1.00000
	O                    2.00000

-----------------------------------Gas phase-----------------------------------

Total pressure: 23.27      atmospheres          (Peng-Robinson calculation)
    Gas volume:   1.00e+00 liters
  Molar volume:   1.23e+00 liters/mole
   P * Vm / RT:  0.93400  (Compressibility Factor Z) 

                                                        Moles in gas
                                            ----------------------------------
Component         log P           P    phi     Initial       Final       Delta

CO2(g)             1.35   2.214e+01  0.939   5.366e-01   7.740e-01   2.374e-01
H2O(g)             0.06   1.138e+00  0.877   3.756e-02   3.978e-02   2.223e-03

-------------------------------Phase assemblage--------------------------------

                                                      Moles in assemblage
Phase               SI  log IAP  log K(T, P)   Initial       Final       Delta

Calcite          -0.00    -9.37     -9.37    9.994e+00   9.993e+00  -8.030e-04

-----------------------------Solution composition------------------------------

	Elements           Molality       Moles

	C                 2.329e-01   2.327e-01
	Ca                6.776e-03   6.771e-03

----------------------------Description of solution----------------------------

                                       pH  =   5.156      Charge balance
                                       pe  =   8.047      Adjusted to redox equilibrium
      Specific Conductance (µS/cm, 100°C)  = 3673
                          Density (g/cm³)  =   0.96165
                               Volume (L)  =   1.05019
                        Viscosity (mPa s)  =   0.28596
                        Activity of water  =   0.996
                 Ionic strength (mol/kgw)  =   2.032e-02
                       Mass of water (kg)  =   9.992e-01
                 Total alkalinity (eq/kg)  =   1.355e-02
                       Total CO2 (mol/kg)  =   2.329e-01
                         Temperature (°C)  = 100.00
                           Pressure (atm)  = 23.27
                  Electrical balance (eq)  =   3.731e-10
 Percent error, 100*(Cat-|An|)/(Cat+|An|)  =   0.00
                               Iterations  =  26
                                  Total H  = 1.109329e+02
                                  Total O  = 5.593870e+01

----------------------------Distribution of species----------------------------

                                               Log       Log       Log    mole V
   Species          Molality    Activity  Molality  Activity     Gamma   cm³/mol

   H+              8.006e-06   6.984e-06    -5.097    -5.156    -0.059      0.00
   OH-             9.921e-08   8.387e-08    -7.003    -7.076    -0.073     -5.75
   H2O             5.551e+01   9.960e-01     1.744    -0.002     0.000     18.78
C(-4)         0.000e+00
   CH4             0.000e+00   0.000e+00   -90.812   -90.810     0.002     41.03
C(4)          2.329e-01
   CO2             2.114e-01   2.121e-01    -0.675    -0.674     0.001     39.05
   HCO3-           1.355e-02   1.160e-02    -1.868    -1.936    -0.067     24.82
   (CO2)2          3.994e-03   4.006e-03    -2.399    -2.397     0.001     77.27
   CaCO3           6.283e-06   6.313e-06    -5.202    -5.200     0.002    -14.30
   CO3-2           2.216e-07   1.189e-07    -6.654    -6.925    -0.270     -6.86
   CaHCO3+         0.000e+00   0.000e+00  -114.459  -114.530    -0.071     (0)  
Ca            6.776e-03
   Ca+2            6.770e-03   3.625e-03    -2.169    -2.441    -0.271    -18.93
   CaCO3           6.283e-06   6.313e-06    -5.202    -5.200     0.002    -14.30
   CaOH+           1.011e-10   8.579e-11    -9.995   -10.067    -0.071     (0)  
   CaHCO3+         0.000e+00   0.000e+00  -114.459  -114.530    -0.071     (0)  
H(0)          3.007e-30
   H2              1.503e-30   1.511e-30   -29.823   -29.821     0.002     18.29
O(0)          3.498e-14
   O2              1.749e-14   1.757e-14   -13.757   -13.755     0.002     33.83

------------------------------Saturation indices-------------------------------

  Phase               SI** log IAP   log K(373 K,  23 atm)

  Aragonite        -0.22     -9.37   -9.15  CaCO3
  Calcite          -0.00     -9.37   -9.37  CaCO3
  CH4(g)          -87.79    -90.81   -3.02  CH4
  CO2(g)            1.32     -0.67   -1.99  CO2	 Pressure  22.1 atm, phi 0.939
  H2(g)           -26.73    -29.82   -3.09  H2
  H2O(g)           -0.00     -0.00   -0.00  H2O	 Pressure   1.1 atm, phi 0.877
  O2(g)           -10.63    -13.76   -3.13  O2

**For a gas, SI = log10(fugacity). Fugacity = pressure * phi / 1 atm.
  For ideal gases, phi = 1.

Reaction step 12.

Using solution 1.	
Using pure phase assemblage 1.	
Using gas phase 1.	
Using reaction 1.	

Reaction 1.	

	  3.000e-01 moles of the following reaction have been added:

	                 Relative
	Reactant            moles

	CO2                  1.00000

	                 Relative
	Element             moles
	C                    1.00000
	O                    2.00000

-----------------------------------Gas phase-----------------------------------

Total pressure: 29.67      atmospheres          (Peng-Robinson calculation)
    Gas volume:   1.00e+00 liters
  Molar volume:   9.46e-01 liters/mole
   P * Vm / RT:  0.91658  (Compressibility Factor Z) 

                                                        Moles in gas
                                            ----------------------------------
Component         log P           P    phi     Initial       Final       Delta

CO2(g)             1.45   2.849e+01  0.923   7.740e-01   1.015e+00   2.411e-01
H2O(g)             0.07   1.182e+00  0.847   3.978e-02   4.213e-02   2.345e-03

-------------------------------Phase assemblage--------------------------------

                                                      Moles in assemblage
Phase               SI  log IAP  log K(T, P)   Initial       Final       Delta

Calcite          -0.00    -9.36     -9.36    9.993e+00   9.993e+00  -6.429e-04

-----------------------------Solution composition------------------------------

	Elements           Molality       Moles

	C                 2.926e-01   2.923e-01
	Ca                7.420e-03   7.414e-03

----------------------------Description of solution----------------------------

                                       pH  =   5.092      Charge balance
                                       pe  =   8.117      Adjusted to redox equilibrium
      Specific Conductance (µS/cm, 100°C)  = 3981
                          Density (g/cm³)  =   0.96239
                               Volume (L)  =   1.05209
                        Viscosity (mPa s)  =   0.28662
                        Activity of water  =   0.995
                 Ionic strength (mol/kgw)  =   2.225e-02
                       Mass of water (kg)  =   9.991e-01
                 Total alkalinity (eq/kg)  =   1.484e-02
                       Total CO2 (mol/kg)  =   2.926e-01
                         Temperature (°C)  = 100.00
                           Pressure (atm)  = 29.67
                  Electrical balance (eq)  =   3.902e-10
 Percent error, 100*(Cat-|An|)/(Cat+|An|)  =   0.00
                               Iterations  =  26
                                  Total H  = 1.109282e+02
                                  Total O  = 5.605615e+01

----------------------------Distribution of species----------------------------

                                               Log       Log       Log    mole V
   Species          Molality    Activity  Molality  Activity     Gamma   cm³/mol

   H+              9.318e-06   8.093e-06    -5.031    -5.092    -0.061      0.00
   OH-             8.653e-08   7.267e-08    -7.063    -7.139    -0.076     -5.77
   H2O             5.551e+01   9.950e-01     1.744    -0.002     0.000     18.77
C(-4)         0.000e+00
   CH4             0.000e+00   0.000e+00   -90.765   -90.762     0.002     41.02
C(4)          2.926e-01
   CO2             2.652e-01   2.661e-01    -0.576    -0.575     0.001     39.03
   HCO3-           1.484e-02   1.263e-02    -1.829    -1.899    -0.070     24.88
   (CO2)2          6.287e-03   6.308e-03    -2.202    -2.200     0.001     77.23
   CaCO3           6.348e-06   6.380e-06    -5.197    -5.195     0.002    -14.26
   CO3-2           2.143e-07   1.125e-07    -6.669    -6.949    -0.280     -6.73
   CaHCO3+         0.000e+00   0.000e+00  -114.389  -114.462    -0.074     (0)  
Ca            7.420e-03
   Ca+2            7.414e-03   3.882e-03    -2.130    -2.411    -0.281    -18.85
   CaCO3           6.348e-06   6.380e-06    -5.197    -5.195     0.002    -14.26
   CaOH+           9.386e-11   7.920e-11   -10.028   -10.101    -0.074     (0)  
   CaHCO3+         0.000e+00   0.000e+00  -114.389  -114.462    -0.074     (0)  
H(0)          2.911e-30
   H2              1.456e-30   1.463e-30   -29.837   -29.835     0.002     18.28
O(0)          3.693e-14
   O2              1.846e-14   1.856e-14   -13.734   -13.731     0.002     33.80

------------------------------Saturation indices-------------------------------

  Phase               SI** log IAP   log K(373 K,  30 atm)

  Aragonite        -0.22     -9.36   -9.14  CaCO3
  Calcite          -0.00     -9.36   -9.36  CaCO3
  CH4(g)          -87.74    -90.76   -3.02  CH4
  CO2(g)            1.42     -0.58   -2.00  CO2	 Pressure  28.5 atm, phi 0.923
  H2(g)           -26.74    -29.83   -3.09  H2
  H2O(g)            0.00     -0.00   -0.00  H2O	 Pressure   1.2 atm, phi 0.847
  O2(g)           -10.60    -13.73   -3.13  O2

**For a gas, SI = log10(fugacity). Fugacity = pressure * phi / 1 atm.
  For ideal gases, phi = 1.

Reaction step 13.

Using solution 1.	
Using pure phase assemblage 1.	
Using gas phase 1.	
Using reaction 1.	

Reaction 1.	

	  3.000e-01 moles of the following reaction have been added:

	                 Relative
	Reactant            moles

	CO2                  1.00000

	                 Relative
	Element             moles
	C                    1.00000
	O                    2.00000

-----------------------------------Gas phase-----------------------------------

Total pressure: 35.93      atmospheres          (Peng-Robinson calculation)
    Gas volume:   1.00e+00 liters
  Molar volume:   7.67e-01 liters/mole
   P * Vm / RT:  0.89955  (Compressibility Factor Z) 

                                                        Moles in gas
                                            ----------------------------------
Component         log P           P    phi     Initial       Final       Delta

CO2(g)             1.54   3.470e+01  0.908   1.015e+00   1.260e+00   2.446e-01
H2O(g)             0.09   1.228e+00  0.817   4.213e-02   4.460e-02   2.469e-03

-------------------------------Phase assemblage--------------------------------

                                                      Moles in assemblage
Phase               SI  log IAP  log K(T, P)   Initial       Final       Delta

Calcite          -0.00    -9.35     -9.35    9.993e+00   9.992e+00  -5.380e-04

-----------------------------Solution composition------------------------------

	Elements           Molality       Moles

	C                 3.486e-01   3.483e-01
	Ca                7.959e-03   7.952e-03

----------------------------Description of solution----------------------------

                                       pH  =   5.043      Charge balance
                                       pe  =   8.155      Adjusted to redox equilibrium
      Specific Conductance (µS/cm, 100°C)  = 4233
                          Density (g/cm³)  =   0.96310
                               Volume (L)  =   1.05386
                        Viscosity (mPa s)  =   0.28722
                        Activity of water  =   0.994
                 Ionic strength (mol/kgw)  =   2.387e-02
                       Mass of water (kg)  =   9.991e-01
                 Total alkalinity (eq/kg)  =   1.592e-02
                       Total CO2 (mol/kg)  =   3.486e-01
                         Temperature (°C)  = 100.00
                           Pressure (atm)  = 35.93
                  Electrical balance (eq)  =   4.055e-10
 Percent error, 100*(Cat-|An|)/(Cat+|An|)  =   0.00
                               Iterations  =  26
                                  Total H  = 1.109232e+02
                                  Total O  = 5.616616e+01

----------------------------Distribution of species----------------------------

                                               Log       Log       Log    mole V
   Species          Molality    Activity  Molality  Activity     Gamma   cm³/mol

   H+              1.046e-05   9.054e-06    -4.980    -5.043    -0.063      0.00
   OH-             7.807e-08   6.523e-08    -7.108    -7.186    -0.078     -5.78
   H2O             5.551e+01   9.941e-01     1.744    -0.003     0.000     18.77
C(-4)         0.000e+00
   CH4             0.000e+00   0.000e+00   -90.603   -90.600     0.002     41.02
C(4)          3.486e-01
   CO2             3.150e-01   3.161e-01    -0.502    -0.500     0.002     39.01
   HCO3-           1.592e-02   1.349e-02    -1.798    -1.870    -0.072     24.93
   (CO2)2          8.873e-03   8.905e-03    -2.052    -2.050     0.002     77.19
   CaCO3           6.412e-06   6.447e-06    -5.193    -5.191     0.002    -14.22
   CO3-2           2.096e-07   1.080e-07    -6.679    -6.966    -0.288     -6.61
   CaHCO3+         0.000e+00   0.000e+00  -114.334  -114.410    -0.076     (0)  
Ca            7.959e-03
   Ca+2            7.953e-03   4.091e-03    -2.099    -2.388    -0.289    -18.78
   CaCO3           6.412e-06   6.447e-06    -5.193    -5.191     0.002    -14.22
   CaOH+           8.877e-11   7.455e-11   -10.052   -10.128    -0.076     (0)  
   CaHCO3+         0.000e+00   0.000e+00  -114.334  -114.410    -0.076     (0)  
H(0)          3.053e-30
   H2              1.527e-30   1.535e-30   -29.816   -29.814     0.003     18.27
O(0)          3.325e-14
   O2              1.663e-14   1.672e-14   -13.779   -13.777     0.002     33.78

------------------------------Saturation indices-------------------------------

  Phase               SI** log IAP   log K(373 K,  36 atm)

  Aragonite        -0.22     -9.35   -9.14  CaCO3
  Calcite          -0.00     -9.35   -9.35  CaCO3
  CH4(g)          -87.58    -90.60   -3.02  CH4
  CO2(g)            1.50     -0.50   -2.00  CO2	 Pressure  34.7 atm, phi 0.908
  H2(g)           -26.72    -29.81   -3.10  H2
  H2O(g)            0.00     -0.00   -0.00  H2O	 Pressure   1.2 atm, phi 0.817
  O2(g)           -10.65    -13.78   -3.13  O2

**For a gas, SI = log10(fugacity). Fugacity = pressure * phi / 1 atm.
  For ideal gases, phi = 1.

Reaction step 14.

Using solution 1.	
Using pure phase assemblage 1.	
Using gas phase 1.	
Using reaction 1.	

Reaction 1.	

	  3.000e-01 moles of the following reaction have been added:

	                 Relative
	Reactant            moles

	CO2                  1.00000

	                 Relative
	Element             moles
	C                    1.00000
	O                    2.00000

-----------------------------------Gas phase-----------------------------------

Total pressure: 42.03      atmospheres          (Peng-Robinson calculation)
    Gas volume:   1.00e+00 liters
  Molar volume:   6.43e-01 liters/mole
   P * Vm / RT:  0.88293  (Compressibility Factor Z) 

                                                        Moles in gas
                                            ----------------------------------
Component         log P           P    phi     Initial       Final       Delta

CO2(g)             1.61   4.076e+01  0.893   1.260e+00   1.508e+00   2.479e-01
H2O(g)             0.11   1.276e+00  0.789   4.460e-02   4.720e-02   2.598e-03

-------------------------------Phase assemblage--------------------------------

                                                      Moles in assemblage
Phase               SI  log IAP  log K(T, P)   Initial       Final       Delta

Calcite          -0.00    -9.35     -9.35    9.992e+00   9.992e+00  -4.625e-04

-----------------------------Solution composition------------------------------

	Elements           Molality       Moles

	C                 4.012e-01   4.008e-01
	Ca                8.423e-03   8.414e-03

----------------------------Description of solution----------------------------

                                       pH  =   5.004      Charge balance
                                       pe  =   8.229      Adjusted to redox equilibrium
      Specific Conductance (µS/cm, 100°C)  = 4445
                          Density (g/cm³)  =   0.96377
                               Volume (L)  =   1.05550
                        Viscosity (mPa s)  =   0.28777
                        Activity of water  =   0.993
                 Ionic strength (mol/kgw)  =   2.526e-02
                       Mass of water (kg)  =   9.990e-01
                 Total alkalinity (eq/kg)  =   1.685e-02
                       Total CO2 (mol/kg)  =   4.012e-01
                         Temperature (°C)  = 100.00
                           Pressure (atm)  = 42.03
                  Electrical balance (eq)  =   4.188e-10
 Percent error, 100*(Cat-|An|)/(Cat+|An|)  =   0.00
                               Iterations  =  26
                                  Total H  = 1.109180e+02
                                  Total O  = 5.626910e+01

----------------------------Distribution of species----------------------------

                                               Log       Log       Log    mole V
   Species          Molality    Activity  Molality  Activity     Gamma   cm³/mol

   H+              1.147e-05   9.900e-06    -4.941    -5.004    -0.064      0.00
   OH-             7.199e-08   5.990e-08    -7.143    -7.223    -0.080     -5.80
   H2O             5.551e+01   9.932e-01     1.744    -0.003     0.000     18.76
C(-4)         0.000e+00
   CH4             0.000e+00   0.000e+00   -90.832   -90.830     0.003     41.01
C(4)          4.012e-01
   CO2             3.611e-01   3.624e-01    -0.442    -0.441     0.002     38.99
   HCO3-           1.684e-02   1.423e-02    -1.774    -1.847    -0.073     24.98
   (CO2)2          1.166e-02   1.171e-02    -1.933    -1.931     0.002     77.15
   CaCO3           6.475e-06   6.513e-06    -5.189    -5.186     0.003    -14.18
   CO3-2           2.064e-07   1.049e-07    -6.685    -6.979    -0.294     -6.50
   CaHCO3+         0.000e+00   0.000e+00  -114.291  -114.368    -0.078     (0)  
Ca            8.423e-03
   Ca+2            8.416e-03   4.268e-03    -2.075    -2.370    -0.295    -18.71
   CaCO3           6.475e-06   6.513e-06    -5.189    -5.186     0.003    -14.18
   CaOH+           8.495e-11   7.107e-11   -10.071   -10.148    -0.078     (0)  
   CaHCO3+         0.000e+00   0.000e+00  -114.291  -114.368    -0.078     (0)  
H(0)          2.579e-30
   H2              1.290e-30   1.297e-30   -29.890   -29.887     0.003     18.26
O(0)          4.617e-14
   O2              2.308e-14   2.322e-14   -13.637   -13.634     0.003     33.76

------------------------------Saturation indices-------------------------------

  Phase               SI** log IAP   log K(373 K,  42 atm)

  Aragonite        -0.22     -9.35   -9.13  CaCO3
  Calcite          -0.00     -9.35   -9.35  CaCO3
  CH4(g)          -87.80    -90.83   -3.03  CH4
  CO2(g)            1.56     -0.44   -2.00  CO2	 Pressure  40.8 atm, phi 0.893
  H2(g)           -26.79    -29.89   -3.10  H2
  H2O(g)            0.00     -0.00   -0.01  H2O	 Pressure   1.3 atm, phi 0.789
  O2(g)           -10.50    -13.63   -3.13  O2

**For a gas, SI = log10(fugacity). Fugacity = pressure * phi / 1 atm.
  For ideal gases, phi = 1.

Reaction step 15.

Using solution 1.	
Using pure phase assemblage 1.	
Using gas phase 1.	
Using reaction 1.	

Reaction 1.	

	  3.000e-01 moles of the following reaction have been added:

	                 Relative
	Reactant            moles

	CO2                  1.00000

	                 Relative
	Element             moles
	C                    1.00000
	O                    2.00000

-----------------------------------Gas phase-----------------------------------

Total pressure: 48.00      atmospheres          (Peng-Robinson calculation)
    Gas volume:   1.00e+00 liters
  Molar volume:   5.53e-01 liters/mole
   P * Vm / RT:  0.86673  (Compressibility Factor Z) 

                                                        Moles in gas
                                            ----------------------------------
Component         log P           P    phi     Initial       Final       Delta

CO2(g)             1.67   4.668e+01  0.879   1.508e+00   1.759e+00   2.511e-01
H2O(g)             0.12   1.325e+00  0.762   4.720e-02   4.993e-02   2.730e-03

-------------------------------Phase assemblage--------------------------------

                                                      Moles in assemblage
Phase               SI  log IAP  log K(T, P)   Initial       Final       Delta

Calcite          -0.00    -9.34     -9.34    9.992e+00   9.991e+00  -4.050e-04

-----------------------------Solution composition------------------------------

	Elements           Molality       Moles

	C                 4.506e-01   4.501e-01
	Ca                8.829e-03   8.819e-03

----------------------------Description of solution----------------------------

                                       pH  =   4.973      Charge balance
                                       pe  =   8.268      Adjusted to redox equilibrium
      Specific Conductance (µS/cm, 100°C)  = 4627
                          Density (g/cm³)  =   0.96440
                               Volume (L)  =   1.05703
                        Viscosity (mPa s)  =   0.28829
                        Activity of water  =   0.992
                 Ionic strength (mol/kgw)  =   2.648e-02
                       Mass of water (kg)  =   9.989e-01
                 Total alkalinity (eq/kg)  =   1.766e-02
                       Total CO2 (mol/kg)  =   4.506e-01
                         Temperature (°C)  = 100.00
                           Pressure (atm)  = 48.00
                  Electrical balance (eq)  =   4.301e-10
 Percent error, 100*(Cat-|An|)/(Cat+|An|)  =   0.00
                               Iterations  =  26
                                  Total H  = 1.109126e+02
                                  Total O  = 5.636535e+01

----------------------------Distribution of species----------------------------

                                               Log       Log       Log    mole V
   Species          Molality    Activity  Molality  Activity     Gamma   cm³/mol

   H+              1.237e-05   1.065e-05    -4.908    -4.973    -0.065      0.00
   OH-             6.741e-08   5.589e-08    -7.171    -7.253    -0.081     -5.82
   H2O             5.551e+01   9.924e-01     1.744    -0.003     0.000     18.75
C(-4)         0.000e+00
   CH4             0.000e+00   0.000e+00   -90.842   -90.839     0.003     41.00
C(4)          4.506e-01
   CO2             4.038e-01   4.054e-01    -0.394    -0.392     0.002     38.97
   HCO3-           1.766e-02   1.487e-02    -1.753    -1.828    -0.075     25.03
   (CO2)2          1.459e-02   1.465e-02    -1.836    -1.834     0.002     77.11
   CaCO3           6.538e-06   6.578e-06    -5.185    -5.182     0.003    -14.15
   CO3-2           2.041e-07   1.025e-07    -6.690    -6.989    -0.299     -6.40
   CaHCO3+         0.000e+00   0.000e+00  -114.254  -114.333    -0.079     (0)  
Ca            8.829e-03
   Ca+2            8.822e-03   4.420e-03    -2.054    -2.355    -0.300    -18.65
   CaCO3           6.538e-06   6.578e-06    -5.185    -5.182     0.003    -14.15
   CaOH+           8.197e-11   6.835e-11   -10.086   -10.165    -0.079     (0)  
   CaHCO3+         0.000e+00   0.000e+00  -114.254  -114.333    -0.079     (0)  
H(0)          2.489e-30
   H2              1.244e-30   1.252e-30   -29.905   -29.902     0.003     18.25
O(0)          4.914e-14
   O2              2.457e-14   2.472e-14   -13.610   -13.607     0.003     33.74

------------------------------Saturation indices-------------------------------

  Phase               SI** log IAP   log K(373 K,  48 atm)

  Aragonite        -0.22     -9.34   -9.13  CaCO3
  Calcite          -0.00     -9.34   -9.34  CaCO3
  CH4(g)          -87.81    -90.84   -3.03  CH4
  CO2(g)            1.61     -0.39   -2.01  CO2	 Pressure  46.7 atm, phi 0.879
  H2(g)           -26.80    -29.90   -3.10  H2
  H2O(g)            0.00     -0.00   -0.01  H2O	 Pressure   1.3 atm, phi 0.762
  O2(g)           -10.47    -13.61   -3.14  O2

**For a gas, SI = log10(fugacity). Fugacity = pressure * phi / 1 atm.
  For ideal gases, phi = 1.

Reaction step 16.

Using solution 1.	
Using pure phase assemblage 1.	
Using gas phase 1.	
Using reaction 1.	

Reaction 1.	

	  3.000e-01 moles of the following reaction have been added:

	                 Relative
	Reactant            moles

	CO2                  1.00000

	                 Relative
	Element             moles
	C                    1.00000
	O                    2.00000

-----------------------------------Gas phase-----------------------------------

Total pressure: 53.83      atmospheres          (Peng-Robinson calculation)
    Gas volume:   1.00e+00 liters
  Molar volume:   4.84e-01 liters/mole
   P * Vm / RT:  0.85097  (Compressibility Factor Z) 

                                                        Moles in gas
                                            ----------------------------------
Component         log P           P    phi     Initial       Final       Delta

CO2(g)             1.72   5.245e+01  0.865   1.759e+00   2.013e+00   2.542e-01
H2O(g)             0.14   1.376e+00  0.736   4.993e-02   5.279e-02   2.864e-03

-------------------------------Phase assemblage--------------------------------

                                                      Moles in assemblage
Phase               SI  log IAP  log K(T, P)   Initial       Final       Delta

Calcite          -0.00    -9.34     -9.34    9.991e+00   9.991e+00  -3.594e-04

-----------------------------Solution composition------------------------------

	Elements           Molality       Moles

	C                 4.969e-01   4.963e-01
	Ca                9.189e-03   9.179e-03

----------------------------Description of solution----------------------------

                                       pH  =   4.946      Charge balance
                                       pe  =   8.309      Adjusted to redox equilibrium
      Specific Conductance (µS/cm, 100°C)  = 4786
                          Density (g/cm³)  =   0.96501
                               Volume (L)  =   1.05844
                        Viscosity (mPa s)  =   0.28877
                        Activity of water  =   0.992
                 Ionic strength (mol/kgw)  =   2.756e-02
                       Mass of water (kg)  =   9.989e-01
                 Total alkalinity (eq/kg)  =   1.838e-02
                       Total CO2 (mol/kg)  =   4.969e-01
                         Temperature (°C)  = 100.00
                           Pressure (atm)  = 53.83
                  Electrical balance (eq)  =   4.393e-10
 Percent error, 100*(Cat-|An|)/(Cat+|An|)  =   0.00
                               Iterations  =  26
                                  Total H  = 1.109069e+02
                                  Total O  = 5.645524e+01

----------------------------Distribution of species----------------------------

                                               Log       Log       Log    mole V
   Species          Molality    Activity  Molality  Activity     Gamma   cm³/mol

   H+              1.318e-05   1.133e-05    -4.880    -4.946    -0.066      0.00
   OH-             6.384e-08   5.276e-08    -7.195    -7.278    -0.083     -5.83
   H2O             5.551e+01   9.917e-01     1.744    -0.004     0.000     18.75
C(-4)         0.000e+00
   CH4             0.000e+00   0.000e+00   -90.916   -90.913     0.003     41.00
C(4)          4.969e-01
   CO2             4.433e-01   4.452e-01    -0.353    -0.351     0.002     38.96
   HCO3-           1.838e-02   1.544e-02    -1.736    -1.811    -0.076     25.07
   (CO2)2          1.759e-02   1.767e-02    -1.755    -1.753     0.002     77.07
   CaCO3           6.600e-06   6.642e-06    -5.180    -5.178     0.003    -14.11
   CO3-2           2.025e-07   1.006e-07    -6.694    -6.997    -0.304     -6.31
   CaHCO3+         0.000e+00   0.000e+00  -114.223  -114.304    -0.080     (0)  
Ca            9.189e-03
   Ca+2            9.182e-03   4.553e-03    -2.037    -2.342    -0.305    -18.59
   CaCO3           6.600e-06   6.642e-06    -5.180    -5.178     0.003    -14.11
   CaOH+           7.958e-11   6.616e-11   -10.099   -10.179    -0.080     (0)  
   CaHCO3+         0.000e+00   0.000e+00  -114.223  -114.304    -0.080     (0)  
H(0)          2.325e-30
   H2              1.163e-30   1.170e-30   -29.935   -29.932     0.003     18.24
O(0)          5.583e-14
   O2              2.792e-14   2.809e-14   -13.554   -13.551     0.003     33.72

------------------------------Saturation indices-------------------------------

  Phase               SI** log IAP   log K(373 K,  54 atm)

  Aragonite        -0.22     -9.34   -9.12  CaCO3
  Calcite          -0.00     -9.34   -9.34  CaCO3
  CH4(g)          -87.88    -90.91   -3.04  CH4
  CO2(g)            1.66     -0.35   -2.01  CO2	 Pressure  52.4 atm, phi 0.865
  H2(g)           -26.83    -29.93   -3.10  H2
  H2O(g)            0.01     -0.00   -0.01  H2O	 Pressure   1.4 atm, phi 0.736
  O2(g)           -10.41    -13.55   -3.14  O2

**For a gas, SI = log10(fugacity). Fugacity = pressure * phi / 1 atm.
  For ideal gases, phi = 1.

Reaction step 17.

Using solution 1.	
Using pure phase assemblage 1.	
Using gas phase 1.	
Using reaction 1.	

Reaction 1.	

	  3.000e-01 moles of the following reaction have been added:

	                 Relative
	Reactant            moles

	CO2                  1.00000

	                 Relative
	Element             moles
	C                    1.00000
	O                    2.00000

-----------------------------------Gas phase-----------------------------------

Total pressure: 59.51      atmospheres          (Peng-Robinson calculation)
    Gas volume:   1.00e+00 liters
  Molar volume:   4.30e-01 liters/mole
   P * Vm / RT:  0.83567  (Compressibility Factor Z) 

                                                        Moles in gas
                                            ----------------------------------
Component         log P           P    phi     Initial       Final       Delta

CO2(g)             1.76   5.808e+01  0.852   2.013e+00   2.270e+00   2.570e-01
H2O(g)             0.15   1.428e+00  0.711   5.279e-02   5.579e-02   3.002e-03

-------------------------------Phase assemblage--------------------------------

                                                      Moles in assemblage
Phase               SI  log IAP  log K(T, P)   Initial       Final       Delta

Calcite          -0.00    -9.33     -9.33    9.991e+00   9.990e+00  -3.221e-04

-----------------------------Solution composition------------------------------

	Elements           Molality       Moles

	C                 5.402e-01   5.396e-01
	Ca                9.512e-03   9.501e-03

----------------------------Description of solution----------------------------

                                       pH  =   4.923      Charge balance
                                       pe  =   8.335      Adjusted to redox equilibrium
      Specific Conductance (µS/cm, 100°C)  = 4926
                          Density (g/cm³)  =   0.96558
                               Volume (L)  =   1.05975
                        Viscosity (mPa s)  =   0.28923
                        Activity of water  =   0.991
                 Ionic strength (mol/kgw)  =   2.853e-02
                       Mass of water (kg)  =   9.988e-01
                 Total alkalinity (eq/kg)  =   1.902e-02
                       Total CO2 (mol/kg)  =   5.402e-01
                         Temperature (°C)  = 100.00
                           Pressure (atm)  = 59.51
                  Electrical balance (eq)  =   4.467e-10
 Percent error, 100*(Cat-|An|)/(Cat+|An|)  =   0.00
                               Iterations  =  26
                                  Total H  = 1.109008e+02
                                  Total O  = 5.653913e+01

----------------------------Distribution of species----------------------------

                                               Log       Log       Log    mole V
   Species          Molality    Activity  Molality  Activity     Gamma   cm³/mol

   H+              1.391e-05   1.194e-05    -4.857    -4.923    -0.066      0.00
   OH-             6.098e-08   5.026e-08    -7.215    -7.299    -0.084     -5.85
   H2O             5.551e+01   9.910e-01     1.744    -0.004     0.000     18.74
C(-4)         0.000e+00
   CH4             0.000e+00   0.000e+00   -90.913   -90.910     0.003     40.99
C(4)          5.402e-01
   CO2             4.799e-01   4.820e-01    -0.319    -0.317     0.002     38.94
   (CO2)2          2.063e-02   2.072e-02    -1.685    -1.684     0.002     77.04
   HCO3-           1.902e-02   1.594e-02    -1.721    -1.797    -0.077     25.11
   CaCO3           6.660e-06   6.704e-06    -5.177    -5.174     0.003    -14.08
   CO3-2           2.014e-07   9.917e-08    -6.696    -7.004    -0.308     -6.22
   CaHCO3+         0.000e+00   0.000e+00  -114.197  -114.278    -0.081     (0)  
Ca            9.512e-03
   Ca+2            9.505e-03   4.671e-03    -2.022    -2.331    -0.309    -18.54
   CaCO3           6.660e-06   6.704e-06    -5.177    -5.174     0.003    -14.08
   CaOH+           7.761e-11   6.437e-11   -10.110   -10.191    -0.081     (0)  
   CaHCO3+         0.000e+00   0.000e+00  -114.197  -114.278    -0.081     (0)  
H(0)          2.279e-30
   H2              1.139e-30   1.147e-30   -29.943   -29.940     0.003     18.23
O(0)          5.767e-14
   O2              2.883e-14   2.902e-14   -13.540   -13.537     0.003     33.71

------------------------------Saturation indices-------------------------------

  Phase               SI** log IAP   log K(373 K,  60 atm)

  Aragonite        -0.22     -9.33   -9.12  CaCO3
  Calcite          -0.00     -9.33   -9.33  CaCO3
  CH4(g)          -87.87    -90.91   -3.04  CH4
  CO2(g)            1.69     -0.32   -2.01  CO2	 Pressure  58.1 atm, phi 0.852
  H2(g)           -26.84    -29.94   -3.10  H2
  H2O(g)            0.01     -0.00   -0.01  H2O	 Pressure   1.4 atm, phi 0.711
  O2(g)           -10.39    -13.54   -3.14  O2

**For a gas, SI = log10(fugacity). Fugacity = pressure * phi / 1 atm.
  For ideal gases, phi = 1.

Reaction step 18.

Using solution 1.	
Using pure phase assemblage 1.	
Using gas phase 1.	
Using reaction 1.	

Reaction 1.	

	  3.000e-01 moles of the following reaction have been added:

	                 Relative
	Reactant            moles

	CO2                  1.00000

	                 Relative
	Element             moles
	C                    1.00000
	O                    2.00000

-----------------------------------Gas phase-----------------------------------

Total pressure: 65.06      atmospheres          (Peng-Robinson calculation)
    Gas volume:   1.00e+00 liters
  Molar volume:   3.86e-01 liters/mole
   P * Vm / RT:  0.82081  (Compressibility Factor Z) 

                                                        Moles in gas
                                            ----------------------------------
Component         log P           P    phi     Initial       Final       Delta

CO2(g)             1.80   6.358e+01  0.840   2.270e+00   2.530e+00   2.597e-01
H2O(g)             0.17   1.481e+00  0.687   5.579e-02   5.894e-02   3.143e-03

-------------------------------Phase assemblage--------------------------------

                                                      Moles in assemblage
Phase               SI  log IAP  log K(T, P)   Initial       Final       Delta

Calcite          -0.00    -9.33     -9.33    9.990e+00   9.990e+00  -2.911e-04

-----------------------------Solution composition------------------------------

	Elements           Molality       Moles

	C                 5.809e-01   5.801e-01
	Ca                9.804e-03   9.792e-03

----------------------------Description of solution----------------------------

                                       pH  =   4.903      Charge balance
                                       pe  =   8.354      Adjusted to redox equilibrium
      Specific Conductance (µS/cm, 100°C)  = 5051
                          Density (g/cm³)  =   0.96613
                               Volume (L)  =   1.06096
                        Viscosity (mPa s)  =   0.28966
                        Activity of water  =   0.990
                 Ionic strength (mol/kgw)  =   2.941e-02
                       Mass of water (kg)  =   9.988e-01
                 Total alkalinity (eq/kg)  =   1.961e-02
                       Total CO2 (mol/kg)  =   5.809e-01
                         Temperature (°C)  = 100.00
                           Pressure (atm)  = 65.06
                  Electrical balance (eq)  =   4.588e-10
 Percent error, 100*(Cat-|An|)/(Cat+|An|)  =   0.00
                               Iterations  =  25
                                  Total H  = 1.108946e+02
                                  Total O  = 5.661736e+01

----------------------------Distribution of species----------------------------

                                               Log       Log       Log    mole V
   Species          Molality    Activity  Molality  Activity     Gamma   cm³/mol

   H+              1.458e-05   1.249e-05    -4.836    -4.903    -0.067      0.00
   OH-             5.864e-08   4.821e-08    -7.232    -7.317    -0.085     -5.87
   H2O             5.551e+01   9.904e-01     1.744    -0.004     0.000     18.74
C(-4)         0.000e+00
   CH4             0.000e+00   0.000e+00   -90.877   -90.874     0.003     40.98
C(4)          5.809e-01
   CO2             5.139e-01   5.162e-01    -0.289    -0.287     0.002     38.92
   (CO2)2          2.366e-02   2.377e-02    -1.626    -1.624     0.002     77.00
   HCO3-           1.961e-02   1.640e-02    -1.708    -1.785    -0.078     25.14
   CaCO3           6.720e-06   6.766e-06    -5.173    -5.170     0.003    -14.04
   CO3-2           2.007e-07   9.804e-08    -6.697    -7.009    -0.311     -6.13
   CaHCO3+         0.000e+00   0.000e+00  -114.173  -114.255    -0.082     (0)  
Ca            9.804e-03
   Ca+2            9.797e-03   4.777e-03    -2.009    -2.321    -0.312    -18.48
   CaCO3           6.720e-06   6.766e-06    -5.173    -5.170     0.003    -14.04
   CaOH+           7.597e-11   6.288e-11   -10.119   -10.202    -0.082     (0)  
   CaHCO3+         0.000e+00   0.000e+00  -114.173  -114.255    -0.082     (0)  
H(0)          2.281e-30
   H2              1.141e-30   1.149e-30   -29.943   -29.940     0.003     18.22
O(0)          5.710e-14
   O2              2.855e-14   2.874e-14   -13.544   -13.541     0.003     33.69

------------------------------Saturation indices-------------------------------

  Phase               SI** log IAP   log K(373 K,  65 atm)

  Aragonite        -0.22     -9.33   -9.11  CaCO3
  Calcite          -0.00     -9.33   -9.33  CaCO3
  CH4(g)          -87.83    -90.87   -3.04  CH4
  CO2(g)            1.73     -0.29   -2.01  CO2	 Pressure  63.6 atm, phi 0.840
  H2(g)           -26.84    -29.94   -3.10  H2
  H2O(g)            0.01     -0.00   -0.01  H2O	 Pressure   1.5 atm, phi 0.687
  O2(g)           -10.40    -13.54   -3.15  O2

**For a gas, SI = log10(fugacity). Fugacity = pressure * phi / 1 atm.
  For ideal gases, phi = 1.

------------------
End of simulation.
------------------

------------------------------------
Reading input data for simulation 2.
------------------------------------

