WARNING: Database file from DATABASE keyword is used; command line argument ignored.
   Input file: cc_P
  Output file: cc_P.out
Database file: ../database/phreeqc.dat

------------------
Reading data base.
------------------

	SOLUTION_MASTER_SPECIES
	SOLUTION_SPECIES
	PHASES
	GAS_BINARY_PARAMETERS
	EXCHANGE_MASTER_SPECIES
	EXCHANGE_SPECIES
	SURFACE_MASTER_SPECIES
	SURFACE_SPECIES
	MEAN_GAMMAS
	RATES
	END
------------------------------------
Reading input data for simulation 1.
------------------------------------

	DATABASE ../database/phreeqc.dat
	SELECTED_OUTPUT 101
	    file                 cc_P_101.sel
	USER_PUNCH 101
	    headings Mu SC
	    start
	10 PUNCH STR_F$(MU, 20, 12)
	20 PUNCH STR_F$(SC, 20, 10)
	    end
	SOLUTION 1
	 pressure 1
	EQUILIBRIUM_PHASES 1
	 Calcite
	REACTION_PRESSURE
		1 1000 in 20 steps
	USER_GRAPH
	-axis_titles "Pressure / atm" "Ca / ppm"
	 -plot_csv_file cc_P.dat
	 10 graph_x  pressure
	 20 graph_y tot("Ca") * 40e3
	 -end
	END
-------------------------------------------
Beginning of initial solution calculations.
-------------------------------------------

Initial solution 1.	

-----------------------------Solution composition------------------------------

	Elements           Molality       Moles

	Pure water     

----------------------------Description of solution----------------------------

                                       pH  =   7.000    
                                       pe  =   4.000    
      Specific Conductance (µS/cm,  25°C)  = 0
                          Density (g/cm³)  =   0.99704
                               Volume (L)  =   1.00297
                        Viscosity (mPa s)  =   0.89002
                        Activity of water  =   1.000
                 Ionic strength (mol/kgw)  =   1.007e-07
                       Mass of water (kg)  =   1.000e+00
                 Total alkalinity (eq/kg)  =   1.217e-09
                         Temperature (°C)  =  25.00
                  Electrical balance (eq)  =  -1.217e-09
 Percent error, 100*(Cat-|An|)/(Cat+|An|)  =  -0.60
                               Iterations  =   0
                                  Total H  = 1.110124e+02
                                  Total O  = 5.550622e+01

----------------------------Distribution of species----------------------------

                                               Log       Log       Log    mole V
   Species          Molality    Activity  Molality  Activity     Gamma   cm³/mol

   OH-             1.013e-07   1.012e-07    -6.995    -6.995    -0.000     -4.14
   H+              1.001e-07   1.000e-07    -7.000    -7.000    -0.000      0.00
   H2O             5.551e+01   1.000e+00     1.744     0.000     0.000     18.07
H(0)          1.416e-25
   H2              7.079e-26   7.079e-26   -25.150   -25.150     0.000     14.99
O(0)          0.000e+00
   O2              0.000e+00   0.000e+00   -42.063   -42.063     0.000     30.40

------------------------------Saturation indices-------------------------------

  Phase               SI** log IAP   log K(298 K,   1 atm)

  H2(g)           -22.05    -25.15   -3.10  H2
  H2O(g)           -1.50      0.00    1.50  H2O
  O2(g)           -39.17    -42.06   -2.89  O2

**For a gas, SI = log10(fugacity). Fugacity = pressure * phi / 1 atm.
  For ideal gases, phi = 1.

-----------------------------------------
Beginning of batch-reaction calculations.
-----------------------------------------

Reaction step 1.

Using solution 1.	
Using pure phase assemblage 1.	
Using pressure 1.	

-------------------------------Phase assemblage--------------------------------

                                                      Moles in assemblage
Phase               SI  log IAP  log K(T, P)   Initial       Final       Delta

Calcite           0.00    -8.45     -8.45    1.000e+01   1.000e+01  -1.269e-04

-----------------------------Solution composition------------------------------

	Elements           Molality       Moles

	C                 1.269e-04   1.269e-04
	Ca                1.269e-04   1.269e-04

----------------------------Description of solution----------------------------

                                       pH  =   9.916      Charge balance
                                       pe  =   7.773      Adjusted to redox equilibrium
      Specific Conductance (µS/cm,  25°C)  = 37
                          Density (g/cm³)  =   0.99706
                               Volume (L)  =   1.00296
                        Viscosity (mPa s)  =   0.89034
                        Activity of water  =   1.000
                 Ionic strength (mol/kgw)  =   3.978e-04
                       Mass of water (kg)  =   1.000e+00
                 Total alkalinity (eq/kg)  =   2.538e-04
                       Total CO2 (mol/kg)  =   1.269e-04
                         Temperature (°C)  =  25.00
                  Electrical balance (eq)  =  -1.217e-09
 Percent error, 100*(Cat-|An|)/(Cat+|An|)  =  -0.00
                               Iterations  =  18
                                  Total H  = 1.110124e+02
                                  Total O  = 5.550660e+01

----------------------------Distribution of species----------------------------

                                               Log       Log       Log    mole V
   Species          Molality    Activity  Molality  Activity     Gamma   cm³/mol

   OH-             8.539e-05   8.346e-05    -4.069    -4.079    -0.010     -4.12
   H+              1.240e-10   1.213e-10    -9.907    -9.916    -0.010      0.00
   H2O             5.551e+01   1.000e+00     1.744    -0.000     0.000     18.07
C(-4)         0.000e+00
   CH4             0.000e+00   0.000e+00  -124.769  -124.769     0.000     35.46
C(4)          1.269e-04
   HCO3-           8.550e-05   8.359e-05    -4.068    -4.078    -0.010     24.54
   CO3-2           3.538e-05   3.232e-05    -4.451    -4.490    -0.039     -4.73
   CaCO3           5.988e-06   5.989e-06    -5.223    -5.223     0.000    -14.60
   CO2             2.279e-08   2.279e-08    -7.642    -7.642     0.000     34.79
   CaHCO3+         8.267e-13   8.083e-13   -12.083   -12.092    -0.010      9.66
   (CO2)2          8.445e-18   8.445e-18   -17.073   -17.073     0.000     68.75
Ca            1.269e-04
   Ca+2            1.208e-04   1.103e-04    -3.918    -3.957    -0.039    -18.18
   CaCO3           5.988e-06   5.989e-06    -5.223    -5.223     0.000    -14.60
   CaOH+           1.544e-07   1.509e-07    -6.811    -6.821    -0.010     (0)  
   CaHCO3+         8.267e-13   8.083e-13   -12.083   -12.092    -0.010      9.66
H(0)          5.913e-39
   H2              2.957e-39   2.957e-39   -38.529   -38.529     0.000     14.99
O(0)          9.926e-16
   O2              4.963e-16   4.963e-16   -15.304   -15.304     0.000     30.40

------------------------------Saturation indices-------------------------------

  Phase               SI** log IAP   log K(298 K,   1 atm)

  Aragonite        -0.11     -8.45   -8.34  CaCO3
  Calcite           0.00     -8.45   -8.45  CaCO3
  CH4(g)         -121.97   -124.77   -2.80  CH4
  CO2(g)           -6.17     -7.64   -1.47  CO2
  H2(g)           -35.43    -38.53   -3.10  H2
  H2O(g)           -1.50     -0.00    1.50  H2O
  O2(g)           -12.41    -15.30   -2.89  O2

**For a gas, SI = log10(fugacity). Fugacity = pressure * phi / 1 atm.
  For ideal gases, phi = 1.

Reaction step 2.

Using solution 1.	
Using pure phase assemblage 1.	
Using pressure 1.	

-------------------------------Phase assemblage--------------------------------

                                                      Moles in assemblage
Phase               SI  log IAP  log K(T, P)   Initial       Final       Delta

Calcite           0.00    -8.39     -8.39    1.000e+01   1.000e+01  -1.335e-04

-----------------------------Solution composition------------------------------

	Elements           Molality       Moles

	C                 1.335e-04   1.335e-04
	Ca                1.335e-04   1.335e-04

----------------------------Description of solution----------------------------

                                       pH  =   9.910      Charge balance
                                       pe  =   7.778      Adjusted to redox equilibrium
      Specific Conductance (µS/cm,  25°C)  = 39
                          Density (g/cm³)  =   0.99942
                               Volume (L)  =   1.00059
                        Viscosity (mPa s)  =   0.88966
                        Activity of water  =   1.000
                 Ionic strength (mol/kgw)  =   4.187e-04
                       Mass of water (kg)  =   1.000e+00
                 Total alkalinity (eq/kg)  =   2.671e-04
                       Total CO2 (mol/kg)  =   1.335e-04
                         Temperature (°C)  =  25.00
                           Pressure (atm)  = 53.58
                  Electrical balance (eq)  =  -1.217e-09
 Percent error, 100*(Cat-|An|)/(Cat+|An|)  =  -0.00
                               Iterations  =  18
                                  Total H  = 1.110124e+02
                                  Total O  = 5.550662e+01

----------------------------Distribution of species----------------------------

                                               Log       Log       Log    mole V
   Species          Molality    Activity  Molality  Activity     Gamma   cm³/mol

   OH-             8.828e-05   8.624e-05    -4.054    -4.064    -0.010     -3.92
   H+              1.258e-10   1.230e-10    -9.900    -9.910    -0.010      0.00
   H2O             5.551e+01   1.000e+00     1.744    -0.000     0.000     18.03
C(-4)         0.000e+00
   CH4             0.000e+00   0.000e+00  -124.798  -124.798     0.000     35.53
C(4)          1.335e-04
   HCO3-           8.840e-05   8.638e-05    -4.054    -4.064    -0.010     24.70
   CO3-2           3.843e-05   3.504e-05    -4.415    -4.455    -0.040     -4.25
   CaCO3           6.684e-06   6.684e-06    -5.175    -5.175     0.000    -14.22
   CO2             2.249e-08   2.250e-08    -7.648    -7.648     0.000     34.74
   CaHCO3+         8.894e-13   8.692e-13   -12.051   -12.061    -0.010      9.80
   (CO2)2          8.241e-18   8.242e-18   -17.084   -17.084     0.000     68.64
Ca            1.335e-04
   Ca+2            1.267e-04   1.155e-04    -3.897    -3.937    -0.040    -17.79
   CaCO3           6.684e-06   6.684e-06    -5.175    -5.175     0.000    -14.22
   CaOH+           1.595e-07   1.559e-07    -6.797    -6.807    -0.010     (0)  
   CaHCO3+         8.894e-13   8.692e-13   -12.051   -12.061    -0.010      9.80
H(0)          5.761e-39
   H2              2.881e-39   2.881e-39   -38.541   -38.540     0.000     15.03
O(0)          9.924e-16
   O2              4.962e-16   4.963e-16   -15.304   -15.304     0.000     30.32

------------------------------Saturation indices-------------------------------

  Phase               SI** log IAP   log K(298 K,  54 atm)

  Aragonite        -0.11     -8.39   -8.28  CaCO3
  Calcite           0.00     -8.39   -8.39  CaCO3
  CH4(g)         -121.96   -124.80   -2.84  CH4
  CO2(g)           -6.15     -7.65   -1.50  CO2
  H2(g)           -35.43    -38.54   -3.11  H2
  H2O(g)           -1.49     -0.00    1.49  H2O
  O2(g)           -12.38    -15.30   -2.92  O2

**For a gas, SI = log10(fugacity). Fugacity = pressure * phi / 1 atm.
  For ideal gases, phi = 1.

Reaction step 3.

Using solution 1.	
Using pure phase assemblage 1.	
Using pressure 1.	

-------------------------------Phase assemblage--------------------------------

                                                      Moles in assemblage
Phase               SI  log IAP  log K(T, P)   Initial       Final       Delta

Calcite           0.00    -8.34     -8.34    1.000e+01   1.000e+01  -1.404e-04

-----------------------------Solution composition------------------------------

	Elements           Molality       Moles

	C                 1.404e-04   1.404e-04
	Ca                1.404e-04   1.404e-04

----------------------------Description of solution----------------------------

                                       pH  =   9.904      Charge balance
                                       pe  =   7.783      Adjusted to redox equilibrium
      Specific Conductance (µS/cm,  25°C)  = 40
                          Density (g/cm³)  =   1.00177
                               Volume (L)  =   0.99824
                        Viscosity (mPa s)  =   0.88908
                        Activity of water  =   1.000
                 Ionic strength (mol/kgw)  =   4.402e-04
                       Mass of water (kg)  =   1.000e+00
                 Total alkalinity (eq/kg)  =   2.808e-04
                       Total CO2 (mol/kg)  =   1.404e-04
                         Temperature (°C)  =  25.00
                           Pressure (atm)  = 106.16
                  Electrical balance (eq)  =  -1.217e-09
 Percent error, 100*(Cat-|An|)/(Cat+|An|)  =  -0.00
                               Iterations  =  18
                                  Total H  = 1.110124e+02
                                  Total O  = 5.550664e+01

----------------------------Distribution of species----------------------------

                                               Log       Log       Log    mole V
   Species          Molality    Activity  Molality  Activity     Gamma   cm³/mol

   OH-             9.117e-05   8.902e-05    -4.040    -4.051    -0.010     -3.74
   H+              1.277e-10   1.248e-10    -9.894    -9.904    -0.010      0.00
   H2O             5.551e+01   1.000e+00     1.744    -0.000     0.000     17.98
C(-4)         0.000e+00
   CH4             0.000e+00   0.000e+00  -124.828  -124.827     0.000     35.60
C(4)          1.404e-04
   HCO3-           9.129e-05   8.916e-05    -4.040    -4.050    -0.010     24.85
   CO3-2           4.164e-05   3.788e-05    -4.380    -4.422    -0.041     -3.78
   CaCO3           7.448e-06   7.449e-06    -5.128    -5.128     0.000    -13.85
   CO2             2.220e-08   2.220e-08    -7.654    -7.654     0.000     34.68
   CaHCO3+         9.565e-13   9.342e-13   -12.019   -12.030    -0.010      9.93
   (CO2)2          8.044e-18   8.044e-18   -17.095   -17.095     0.000     68.53
Ca            1.404e-04
   Ca+2            1.328e-04   1.208e-04    -3.877    -3.918    -0.041    -17.42
   CaCO3           7.448e-06   7.449e-06    -5.128    -5.128     0.000    -13.85
   CaOH+           1.649e-07   1.610e-07    -6.783    -6.793    -0.010     (0)  
   CaHCO3+         9.565e-13   9.342e-13   -12.019   -12.030    -0.010      9.93
H(0)          5.611e-39
   H2              2.805e-39   2.806e-39   -38.552   -38.552     0.000     15.06
O(0)          9.926e-16
   O2              4.963e-16   4.963e-16   -15.304   -15.304     0.000     30.25

------------------------------Saturation indices-------------------------------

  Phase               SI** log IAP   log K(298 K, 106 atm)

  Aragonite        -0.11     -8.34   -8.23  CaCO3
  Calcite           0.00     -8.34   -8.34  CaCO3
  CH4(g)         -121.96   -124.83   -2.87  CH4
  CO2(g)           -6.12     -7.65   -1.53  CO2
  H2(g)           -35.42    -38.55   -3.13  H2
  H2O(g)           -1.47     -0.00    1.47  H2O
  O2(g)           -12.36    -15.30   -2.95  O2

**For a gas, SI = log10(fugacity). Fugacity = pressure * phi / 1 atm.
  For ideal gases, phi = 1.

Reaction step 4.

Using solution 1.	
Using pure phase assemblage 1.	
Using pressure 1.	

-------------------------------Phase assemblage--------------------------------

                                                      Moles in assemblage
Phase               SI  log IAP  log K(T, P)   Initial       Final       Delta

Calcite           0.00    -8.29     -8.29    1.000e+01   1.000e+01  -1.475e-04

-----------------------------Solution composition------------------------------

	Elements           Molality       Moles

	C                 1.475e-04   1.475e-04
	Ca                1.475e-04   1.475e-04

----------------------------Description of solution----------------------------

                                       pH  =   9.897      Charge balance
                                       pe  =   7.788      Adjusted to redox equilibrium
      Specific Conductance (µS/cm,  25°C)  = 42
                          Density (g/cm³)  =   1.00411
                               Volume (L)  =   0.99592
                        Viscosity (mPa s)  =   0.88858
                        Activity of water  =   1.000
                 Ionic strength (mol/kgw)  =   4.623e-04
                       Mass of water (kg)  =   1.000e+00
                 Total alkalinity (eq/kg)  =   2.950e-04
                       Total CO2 (mol/kg)  =   1.475e-04
                         Temperature (°C)  =  25.00
                           Pressure (atm)  = 158.74
                  Electrical balance (eq)  =  -1.217e-09
 Percent error, 100*(Cat-|An|)/(Cat+|An|)  =  -0.00
                               Iterations  =  18
                                  Total H  = 1.110124e+02
                                  Total O  = 5.550666e+01

----------------------------Distribution of species----------------------------

                                               Log       Log       Log    mole V
   Species          Molality    Activity  Molality  Activity     Gamma   cm³/mol

   OH-             9.406e-05   9.179e-05    -4.027    -4.037    -0.011     -3.55
   H+              1.297e-10   1.267e-10    -9.887    -9.897    -0.010      0.00
   H2O             5.551e+01   1.000e+00     1.744    -0.000     0.000     17.94
C(-4)         0.000e+00
   CH4             0.000e+00   0.000e+00  -124.857  -124.857     0.000     35.66
C(4)          1.475e-04
   HCO3-           9.418e-05   9.194e-05    -4.026    -4.037    -0.010     25.00
   CO3-2           4.500e-05   4.086e-05    -4.347    -4.389    -0.042     -3.34
   CaCO3           8.287e-06   8.288e-06    -5.082    -5.082     0.000    -13.50
   CO2             2.192e-08   2.192e-08    -7.659    -7.659     0.000     34.63
   CaHCO3+         1.028e-12   1.004e-12   -11.988   -11.998    -0.010     10.06
   (CO2)2          7.853e-18   7.853e-18   -17.105   -17.105     0.000     68.42
Ca            1.475e-04
   Ca+2            1.390e-04   1.262e-04    -3.857    -3.899    -0.042    -17.06
   CaCO3           8.287e-06   8.288e-06    -5.082    -5.082     0.000    -13.50
   CaOH+           1.704e-07   1.663e-07    -6.768    -6.779    -0.011     (0)  
   CaHCO3+         1.028e-12   1.004e-12   -11.988   -11.998    -0.010     10.06
H(0)          5.465e-39
   H2              2.732e-39   2.733e-39   -38.563   -38.563     0.000     15.09
O(0)          9.924e-16
   O2              4.962e-16   4.962e-16   -15.304   -15.304     0.000     30.18

------------------------------Saturation indices-------------------------------

  Phase               SI** log IAP   log K(298 K, 159 atm)

  Aragonite        -0.10     -8.29   -8.18  CaCO3
  Calcite           0.00     -8.29   -8.29  CaCO3
  CH4(g)         -121.96   -124.86   -2.90  CH4
  CO2(g)           -6.09     -7.66   -1.57  CO2
  H2(g)           -35.42    -38.56   -3.14  H2
  H2O(g)           -1.45     -0.00    1.45  H2O
  O2(g)           -12.33    -15.30   -2.98  O2

**For a gas, SI = log10(fugacity). Fugacity = pressure * phi / 1 atm.
  For ideal gases, phi = 1.

Reaction step 5.

Using solution 1.	
Using pure phase assemblage 1.	
Using pressure 1.	

-------------------------------Phase assemblage--------------------------------

                                                      Moles in assemblage
Phase               SI  log IAP  log K(T, P)   Initial       Final       Delta

Calcite           0.00    -8.24     -8.24    1.000e+01   1.000e+01  -1.548e-04

-----------------------------Solution composition------------------------------

	Elements           Molality       Moles

	C                 1.548e-04   1.548e-04
	Ca                1.548e-04   1.548e-04

----------------------------Description of solution----------------------------

                                       pH  =   9.891      Charge balance
                                       pe  =   7.793      Adjusted to redox equilibrium
      Specific Conductance (µS/cm,  25°C)  = 44
                          Density (g/cm³)  =   1.00642
                               Volume (L)  =   0.99363
                        Viscosity (mPa s)  =   0.88818
                        Activity of water  =   1.000
                 Ionic strength (mol/kgw)  =   4.850e-04
                       Mass of water (kg)  =   1.000e+00
                 Total alkalinity (eq/kg)  =   3.097e-04
                       Total CO2 (mol/kg)  =   1.548e-04
                         Temperature (°C)  =  25.00
                           Pressure (atm)  = 211.32
                  Electrical balance (eq)  =  -1.217e-09
 Percent error, 100*(Cat-|An|)/(Cat+|An|)  =  -0.00
                               Iterations  =  18
                                  Total H  = 1.110124e+02
                                  Total O  = 5.550668e+01

----------------------------Distribution of species----------------------------

                                               Log       Log       Log    mole V
   Species          Molality    Activity  Molality  Activity     Gamma   cm³/mol

   OH-             9.694e-05   9.455e-05    -4.014    -4.024    -0.011     -3.38
   H+              1.317e-10   1.285e-10    -9.881    -9.891    -0.010      0.00
   H2O             5.551e+01   1.000e+00     1.744    -0.000     0.000     17.90
C(-4)         0.000e+00
   CH4             0.000e+00   0.000e+00  -124.887  -124.887     0.000     35.72
C(4)          1.548e-04
   HCO3-           9.707e-05   9.471e-05    -4.013    -4.024    -0.011     25.15
   CO3-2           4.853e-05   4.397e-05    -4.314    -4.357    -0.043     -2.90
   CaCO3           9.208e-06   9.210e-06    -5.036    -5.036     0.000    -13.16
   CO2             2.164e-08   2.164e-08    -7.665    -7.665     0.000     34.57
   CaHCO3+         1.105e-12   1.078e-12   -11.957   -11.967    -0.011     10.18
   (CO2)2          7.667e-18   7.668e-18   -17.115   -17.115     0.000     68.31
Ca            1.548e-04
   Ca+2            1.454e-04   1.318e-04    -3.837    -3.880    -0.043    -16.71
   CaCO3           9.208e-06   9.210e-06    -5.036    -5.036     0.000    -13.16
   CaOH+           1.762e-07   1.719e-07    -6.754    -6.765    -0.011     (0)  
   CaHCO3+         1.105e-12   1.078e-12   -11.957   -11.967    -0.011     10.18
H(0)          5.321e-39
   H2              2.660e-39   2.661e-39   -38.575   -38.575     0.000     15.13
O(0)          9.926e-16
   O2              4.963e-16   4.963e-16   -15.304   -15.304     0.000     30.11

------------------------------Saturation indices-------------------------------

  Phase               SI** log IAP   log K(298 K, 211 atm)

  Aragonite        -0.10     -8.24   -8.14  CaCO3
  Calcite           0.00     -8.24   -8.24  CaCO3
  CH4(g)         -121.95   -124.89   -2.94  CH4
  CO2(g)           -6.07     -7.66   -1.60  CO2
  H2(g)           -35.42    -38.58   -3.16  H2
  H2O(g)           -1.44     -0.00    1.44  H2O
  O2(g)           -12.30    -15.30   -3.00  O2

**For a gas, SI = log10(fugacity). Fugacity = pressure * phi / 1 atm.
  For ideal gases, phi = 1.

Reaction step 6.

Using solution 1.	
Using pure phase assemblage 1.	
Using pressure 1.	

-------------------------------Phase assemblage--------------------------------

                                                      Moles in assemblage
Phase               SI  log IAP  log K(T, P)   Initial       Final       Delta

Calcite           0.00    -8.19     -8.19    1.000e+01   1.000e+01  -1.624e-04

-----------------------------Solution composition------------------------------

	Elements           Molality       Moles

	C                 1.624e-04   1.624e-04
	Ca                1.624e-04   1.624e-04

----------------------------Description of solution----------------------------

                                       pH  =   9.885      Charge balance
                                       pe  =   7.798      Adjusted to redox equilibrium
      Specific Conductance (µS/cm,  25°C)  = 46
                          Density (g/cm³)  =   1.00872
                               Volume (L)  =   0.99137
                        Viscosity (mPa s)  =   0.88787
                        Activity of water  =   1.000
                 Ionic strength (mol/kgw)  =   5.084e-04
                       Mass of water (kg)  =   1.000e+00
                 Total alkalinity (eq/kg)  =   3.248e-04
                       Total CO2 (mol/kg)  =   1.624e-04
                         Temperature (°C)  =  25.00
                           Pressure (atm)  = 263.89
                  Electrical balance (eq)  =  -1.217e-09
 Percent error, 100*(Cat-|An|)/(Cat+|An|)  =  -0.00
                               Iterations  =  18
                                  Total H  = 1.110124e+02
                                  Total O  = 5.550670e+01

----------------------------Distribution of species----------------------------

                                               Log       Log       Log    mole V
   Species          Molality    Activity  Molality  Activity     Gamma   cm³/mol

   OH-             9.981e-05   9.730e-05    -4.001    -4.012    -0.011     -3.21
   H+              1.337e-10   1.305e-10    -9.874    -9.885    -0.011      0.00
   H2O             5.551e+01   1.000e+00     1.744    -0.000     0.000     17.86
C(-4)         0.000e+00
   CH4             0.000e+00   0.000e+00  -124.916  -124.916     0.000     35.78
C(4)          1.624e-04
   HCO3-           9.995e-05   9.747e-05    -4.000    -4.011    -0.011     25.29
   CO3-2           5.222e-05   4.722e-05    -4.282    -4.326    -0.044     -2.48
   CaCO3           1.022e-05   1.022e-05    -4.991    -4.991     0.000    -12.83
   CO2             2.136e-08   2.137e-08    -7.670    -7.670     0.000     34.52
   CaHCO3+         1.186e-12   1.157e-12   -11.926   -11.937    -0.011     10.30
   (CO2)2          7.488e-18   7.489e-18   -17.126   -17.126     0.000     68.21
Ca            1.624e-04
   Ca+2            1.520e-04   1.374e-04    -3.818    -3.862    -0.044    -16.37
   CaCO3           1.022e-05   1.022e-05    -4.991    -4.991     0.000    -12.83
   CaOH+           1.822e-07   1.777e-07    -6.739    -6.750    -0.011     (0)  
   CaHCO3+         1.186e-12   1.157e-12   -11.926   -11.937    -0.011     10.30
H(0)          5.180e-39
   H2              2.590e-39   2.590e-39   -38.587   -38.587     0.000     15.16
O(0)          9.926e-16
   O2              4.963e-16   4.963e-16   -15.304   -15.304     0.000     30.04

------------------------------Saturation indices-------------------------------

  Phase               SI** log IAP   log K(298 K, 264 atm)

  Aragonite        -0.10     -8.19   -8.09  CaCO3
  Calcite           0.00     -8.19   -8.19  CaCO3
  CH4(g)         -121.95   -124.92   -2.97  CH4
  CO2(g)           -6.04     -7.67   -1.63  CO2
  H2(g)           -35.42    -38.59   -3.17  H2
  H2O(g)           -1.42     -0.00    1.42  H2O
  O2(g)           -12.27    -15.30   -3.03  O2

**For a gas, SI = log10(fugacity). Fugacity = pressure * phi / 1 atm.
  For ideal gases, phi = 1.

Reaction step 7.

Using solution 1.	
Using pure phase assemblage 1.	
Using pressure 1.	

-------------------------------Phase assemblage--------------------------------

                                                      Moles in assemblage
Phase               SI  log IAP  log K(T, P)   Initial       Final       Delta

Calcite           0.00    -8.14     -8.14    1.000e+01   1.000e+01  -1.702e-04

-----------------------------Solution composition------------------------------

	Elements           Molality       Moles

	C                 1.702e-04   1.702e-04
	Ca                1.702e-04   1.702e-04

----------------------------Description of solution----------------------------

                                       pH  =   9.878      Charge balance
                                       pe  =   7.804      Adjusted to redox equilibrium
      Specific Conductance (µS/cm,  25°C)  = 49
                          Density (g/cm³)  =   1.01099
                               Volume (L)  =   0.98914
                        Viscosity (mPa s)  =   0.88766
                        Activity of water  =   1.000
                 Ionic strength (mol/kgw)  =   5.324e-04
                       Mass of water (kg)  =   1.000e+00
                 Total alkalinity (eq/kg)  =   3.405e-04
                       Total CO2 (mol/kg)  =   1.702e-04
                         Temperature (°C)  =  25.00
                           Pressure (atm)  = 316.47
                  Electrical balance (eq)  =  -1.217e-09
 Percent error, 100*(Cat-|An|)/(Cat+|An|)  =  -0.00
                               Iterations  =  18
                                  Total H  = 1.110124e+02
                                  Total O  = 5.550673e+01

----------------------------Distribution of species----------------------------

                                               Log       Log       Log    mole V
   Species          Molality    Activity  Molality  Activity     Gamma   cm³/mol

   OH-             1.027e-04   1.000e-04    -3.989    -4.000    -0.011     -3.04
   H+              1.358e-10   1.324e-10    -9.867    -9.878    -0.011      0.00
   H2O             5.551e+01   1.000e+00     1.744    -0.000     0.000     17.82
C(-4)         0.000e+00
   CH4             0.000e+00   0.000e+00  -124.946  -124.946     0.000     35.84
C(4)          1.702e-04
   HCO3-           1.028e-04   1.002e-04    -3.988    -3.999    -0.011     25.42
   CO3-2           5.607e-05   5.060e-05    -4.251    -4.296    -0.045     -2.08
   CaCO3           1.133e-05   1.133e-05    -4.946    -4.946     0.000    -12.52
   CO2             2.110e-08   2.110e-08    -7.676    -7.676     0.000     34.47
   CaHCO3+         1.274e-12   1.242e-12   -11.895   -11.906    -0.011     10.41
   (CO2)2          7.314e-18   7.315e-18   -17.136   -17.136     0.000     68.11
Ca            1.702e-04
   Ca+2            1.587e-04   1.432e-04    -3.799    -3.844    -0.045    -16.05
   CaCO3           1.133e-05   1.133e-05    -4.946    -4.946     0.000    -12.52
   CaOH+           1.885e-07   1.837e-07    -6.725    -6.736    -0.011     (0)  
   CaHCO3+         1.274e-12   1.242e-12   -11.895   -11.906    -0.011     10.41
H(0)          5.042e-39
   H2              2.521e-39   2.521e-39   -38.598   -38.598     0.000     15.19
O(0)          9.926e-16
   O2              4.963e-16   4.964e-16   -15.304   -15.304     0.000     29.97

------------------------------Saturation indices-------------------------------

  Phase               SI** log IAP   log K(298 K, 316 atm)

  Aragonite        -0.10     -8.14   -8.04  CaCO3
  Calcite           0.00     -8.14   -8.14  CaCO3
  CH4(g)         -121.94   -124.95   -3.00  CH4
  CO2(g)           -6.01     -7.68   -1.66  CO2
  H2(g)           -35.41    -38.60   -3.18  H2
  H2O(g)           -1.40     -0.00    1.40  H2O
  O2(g)           -12.24    -15.30   -3.06  O2

**For a gas, SI = log10(fugacity). Fugacity = pressure * phi / 1 atm.
  For ideal gases, phi = 1.

Reaction step 8.

Using solution 1.	
Using pure phase assemblage 1.	
Using pressure 1.	

-------------------------------Phase assemblage--------------------------------

                                                      Moles in assemblage
Phase               SI  log IAP  log K(T, P)   Initial       Final       Delta

Calcite           0.00    -8.09     -8.09    1.000e+01   1.000e+01  -1.783e-04

-----------------------------Solution composition------------------------------

	Elements           Molality       Moles

	C                 1.783e-04   1.783e-04
	Ca                1.783e-04   1.783e-04

----------------------------Description of solution----------------------------

                                       pH  =   9.872      Charge balance
                                       pe  =   7.809      Adjusted to redox equilibrium
      Specific Conductance (µS/cm,  25°C)  = 51
                          Density (g/cm³)  =   1.01325
                               Volume (L)  =   0.98694
                        Viscosity (mPa s)  =   0.88754
                        Activity of water  =   1.000
                 Ionic strength (mol/kgw)  =   5.571e-04
                       Mass of water (kg)  =   1.000e+00
                 Total alkalinity (eq/kg)  =   3.567e-04
                       Total CO2 (mol/kg)  =   1.783e-04
                         Temperature (°C)  =  25.00
                           Pressure (atm)  = 369.05
                  Electrical balance (eq)  =  -1.217e-09
 Percent error, 100*(Cat-|An|)/(Cat+|An|)  =  -0.00
                               Iterations  =  18
                                  Total H  = 1.110124e+02
                                  Total O  = 5.550675e+01

----------------------------Distribution of species----------------------------

                                               Log       Log       Log    mole V
   Species          Molality    Activity  Molality  Activity     Gamma   cm³/mol

   OH-             1.055e-04   1.028e-04    -3.977    -3.988    -0.012     -2.88
   H+              1.379e-10   1.344e-10    -9.861    -9.872    -0.011      0.00
   H2O             5.551e+01   1.000e+00     1.744    -0.000     0.000     17.78
C(-4)         0.000e+00
   CH4             0.000e+00   0.000e+00  -124.976  -124.976     0.000     35.89
C(4)          1.783e-04
   HCO3-           1.057e-04   1.030e-04    -3.976    -3.987    -0.011     25.55
   CO3-2           6.009e-05   5.412e-05    -4.221    -4.267    -0.045     -1.69
   CaCO3           1.254e-05   1.254e-05    -4.902    -4.902     0.000    -12.22
   CO2             2.083e-08   2.083e-08    -7.681    -7.681     0.000     34.42
   CaHCO3+         1.367e-12   1.332e-12   -11.864   -11.876    -0.011     10.52
   (CO2)2          7.145e-18   7.146e-18   -17.146   -17.146     0.000     68.01
Ca            1.783e-04
   Ca+2            1.656e-04   1.491e-04    -3.781    -3.826    -0.045    -15.74
   CaCO3           1.254e-05   1.254e-05    -4.902    -4.902     0.000    -12.22
   CaOH+           1.950e-07   1.899e-07    -6.710    -6.721    -0.011     (0)  
   CaHCO3+         1.367e-12   1.332e-12   -11.864   -11.876    -0.011     10.52
H(0)          4.907e-39
   H2              2.454e-39   2.454e-39   -38.610   -38.610     0.000     15.21
O(0)          9.926e-16
   O2              4.963e-16   4.964e-16   -15.304   -15.304     0.000     29.91

------------------------------Saturation indices-------------------------------

  Phase               SI** log IAP   log K(298 K, 369 atm)

  Aragonite        -0.09     -8.09   -8.00  CaCO3
  Calcite           0.00     -8.09   -8.09  CaCO3
  CH4(g)         -121.94   -124.98   -3.04  CH4
  CO2(g)           -5.99     -7.68   -1.69  CO2
  H2(g)           -35.41    -38.61   -3.20  H2
  H2O(g)           -1.39     -0.00    1.39  H2O
  O2(g)           -12.22    -15.30   -3.09  O2

**For a gas, SI = log10(fugacity). Fugacity = pressure * phi / 1 atm.
  For ideal gases, phi = 1.

Reaction step 9.

Using solution 1.	
Using pure phase assemblage 1.	
Using pressure 1.	

-------------------------------Phase assemblage--------------------------------

                                                      Moles in assemblage
Phase               SI  log IAP  log K(T, P)   Initial       Final       Delta

Calcite           0.00    -8.05     -8.05    1.000e+01   1.000e+01  -1.867e-04

-----------------------------Solution composition------------------------------

	Elements           Molality       Moles

	C                 1.867e-04   1.867e-04
	Ca                1.867e-04   1.867e-04

----------------------------Description of solution----------------------------

                                       pH  =   9.865      Charge balance
                                       pe  =   7.814      Adjusted to redox equilibrium
      Specific Conductance (µS/cm,  25°C)  = 53
                          Density (g/cm³)  =   1.01547
                               Volume (L)  =   0.98478
                        Viscosity (mPa s)  =   0.88752
                        Activity of water  =   1.000
                 Ionic strength (mol/kgw)  =   5.824e-04
                       Mass of water (kg)  =   1.000e+00
                 Total alkalinity (eq/kg)  =   3.734e-04
                       Total CO2 (mol/kg)  =   1.867e-04
                         Temperature (°C)  =  25.00
                           Pressure (atm)  = 421.63
                  Electrical balance (eq)  =  -1.217e-09
 Percent error, 100*(Cat-|An|)/(Cat+|An|)  =  -0.00
                               Iterations  =  18
                                  Total H  = 1.110124e+02
                                  Total O  = 5.550678e+01

----------------------------Distribution of species----------------------------

                                               Log       Log       Log    mole V
   Species          Molality    Activity  Molality  Activity     Gamma   cm³/mol

   OH-             1.084e-04   1.055e-04    -3.965    -3.977    -0.012     -2.72
   H+              1.400e-10   1.364e-10    -9.854    -9.865    -0.011      0.00
   H2O             5.551e+01   1.000e+00     1.744    -0.000     0.000     17.74
C(-4)         0.000e+00
   CH4             0.000e+00   0.000e+00  -125.006  -125.006     0.000     35.94
C(4)          1.867e-04
   HCO3-           1.085e-04   1.057e-04    -3.964    -3.976    -0.012     25.68
   CO3-2           6.428e-05   5.778e-05    -4.192    -4.238    -0.046     -1.31
   CaCO3           1.386e-05   1.386e-05    -4.858    -4.858     0.000    -11.92
   CO2             2.057e-08   2.058e-08    -7.687    -7.687     0.000     34.37
   CaHCO3+         1.467e-12   1.428e-12   -11.834   -11.845    -0.012     10.63
   (CO2)2          6.982e-18   6.983e-18   -17.156   -17.156     0.000     67.91
Ca            1.867e-04
   Ca+2            1.726e-04   1.552e-04    -3.763    -3.809    -0.046    -15.44
   CaCO3           1.386e-05   1.386e-05    -4.858    -4.858     0.000    -11.92
   CaOH+           2.018e-07   1.964e-07    -6.695    -6.707    -0.012     (0)  
   CaHCO3+         1.467e-12   1.428e-12   -11.834   -11.845    -0.012     10.63
H(0)          4.775e-39
   H2              2.388e-39   2.388e-39   -38.622   -38.622     0.000     15.24
O(0)          9.926e-16
   O2              4.963e-16   4.964e-16   -15.304   -15.304     0.000     29.85

------------------------------Saturation indices-------------------------------

  Phase               SI** log IAP   log K(298 K, 422 atm)

  Aragonite        -0.09     -8.05   -7.96  CaCO3
  Calcite           0.00     -8.05   -8.05  CaCO3
  CH4(g)         -121.94   -125.01   -3.07  CH4
  CO2(g)           -5.96     -7.69   -1.72  CO2
  H2(g)           -35.41    -38.62   -3.21  H2
  H2O(g)           -1.37     -0.00    1.37  H2O
  O2(g)           -12.19    -15.30   -3.12  O2

**For a gas, SI = log10(fugacity). Fugacity = pressure * phi / 1 atm.
  For ideal gases, phi = 1.

Reaction step 10.

Using solution 1.	
Using pure phase assemblage 1.	
Using pressure 1.	

-------------------------------Phase assemblage--------------------------------

                                                      Moles in assemblage
Phase               SI  log IAP  log K(T, P)   Initial       Final       Delta

Calcite           0.00    -8.00     -8.00    1.000e+01   1.000e+01  -1.954e-04

-----------------------------Solution composition------------------------------

	Elements           Molality       Moles

	C                 1.954e-04   1.954e-04
	Ca                1.954e-04   1.954e-04

----------------------------Description of solution----------------------------

                                       pH  =   9.859      Charge balance
                                       pe  =   7.819      Adjusted to redox equilibrium
      Specific Conductance (µS/cm,  25°C)  = 55
                          Density (g/cm³)  =   1.01768
                               Volume (L)  =   0.98265
                        Viscosity (mPa s)  =   0.88759
                        Activity of water  =   1.000
                 Ionic strength (mol/kgw)  =   6.083e-04
                       Mass of water (kg)  =   1.000e+00
                 Total alkalinity (eq/kg)  =   3.907e-04
                       Total CO2 (mol/kg)  =   1.954e-04
                         Temperature (°C)  =  25.00
                           Pressure (atm)  = 474.21
                  Electrical balance (eq)  =  -1.217e-09
 Percent error, 100*(Cat-|An|)/(Cat+|An|)  =  -0.00
                               Iterations  =  18
                                  Total H  = 1.110124e+02
                                  Total O  = 5.550680e+01

----------------------------Distribution of species----------------------------

                                               Log       Log       Log    mole V
   Species          Molality    Activity  Molality  Activity     Gamma   cm³/mol

   OH-             1.112e-04   1.082e-04    -3.954    -3.966    -0.012     -2.57
   H+              1.422e-10   1.385e-10    -9.847    -9.859    -0.011      0.00
   H2O             5.551e+01   1.000e+00     1.744    -0.000     0.000     17.70
C(-4)         0.000e+00
   CH4             0.000e+00   0.000e+00  -125.035  -125.035     0.000     35.99
C(4)          1.954e-04
   HCO3-           1.114e-04   1.084e-04    -3.953    -3.965    -0.012     25.81
   CO3-2           6.864e-05   6.158e-05    -4.163    -4.211    -0.047     -0.94
   CaCO3           1.531e-05   1.531e-05    -4.815    -4.815     0.000    -11.64
   CO2             2.032e-08   2.032e-08    -7.692    -7.692     0.000     34.33
   CaHCO3+         1.573e-12   1.531e-12   -11.803   -11.815    -0.012     10.73
   (CO2)2          6.823e-18   6.824e-18   -17.166   -17.166     0.000     67.82
Ca            1.954e-04
   Ca+2            1.798e-04   1.613e-04    -3.745    -3.792    -0.047    -15.14
   CaCO3           1.531e-05   1.531e-05    -4.815    -4.815     0.000    -11.64
   CaOH+           2.088e-07   2.031e-07    -6.680    -6.692    -0.012     (0)  
   CaHCO3+         1.573e-12   1.531e-12   -11.803   -11.815    -0.012     10.73
H(0)          4.647e-39
   H2              2.323e-39   2.324e-39   -38.634   -38.634     0.000     15.27
O(0)          9.924e-16
   O2              4.962e-16   4.963e-16   -15.304   -15.304     0.000     29.79

------------------------------Saturation indices-------------------------------

  Phase               SI** log IAP   log K(298 K, 474 atm)

  Aragonite        -0.09     -8.00   -7.92  CaCO3
  Calcite           0.00     -8.00   -8.00  CaCO3
  CH4(g)         -121.93   -125.04   -3.10  CH4
  CO2(g)           -5.94     -7.69   -1.76  CO2
  H2(g)           -35.41    -38.63   -3.23  H2
  H2O(g)           -1.35     -0.00    1.35  H2O
  O2(g)           -12.16    -15.30   -3.14  O2

**For a gas, SI = log10(fugacity). Fugacity = pressure * phi / 1 atm.
  For ideal gases, phi = 1.

Reaction step 11.

Using solution 1.	
Using pure phase assemblage 1.	
Using pressure 1.	

-------------------------------Phase assemblage--------------------------------

                                                      Moles in assemblage
Phase               SI  log IAP  log K(T, P)   Initial       Final       Delta

Calcite          -0.00    -7.96     -7.96    1.000e+01   1.000e+01  -2.043e-04

-----------------------------Solution composition------------------------------

	Elements           Molality       Moles

	C                 2.043e-04   2.043e-04
	Ca                2.043e-04   2.043e-04

----------------------------Description of solution----------------------------

                                       pH  =   9.852      Charge balance
                                       pe  =   7.824      Adjusted to redox equilibrium
      Specific Conductance (µS/cm,  25°C)  = 57
                          Density (g/cm³)  =   1.01986
                               Volume (L)  =   0.98055
                        Viscosity (mPa s)  =   0.88775
                        Activity of water  =   1.000
                 Ionic strength (mol/kgw)  =   6.350e-04
                       Mass of water (kg)  =   1.000e+00
                 Total alkalinity (eq/kg)  =   4.086e-04
                       Total CO2 (mol/kg)  =   2.043e-04
                         Temperature (°C)  =  25.00
                           Pressure (atm)  = 526.79
                  Electrical balance (eq)  =  -1.218e-09
 Percent error, 100*(Cat-|An|)/(Cat+|An|)  =  -0.00
                               Iterations  =  17
                                  Total H  = 1.110124e+02
                                  Total O  = 5.550683e+01

----------------------------Distribution of species----------------------------

                                               Log       Log       Log    mole V
   Species          Molality    Activity  Molality  Activity     Gamma   cm³/mol

   OH-             1.140e-04   1.109e-04    -3.943    -3.955    -0.012     -2.43
   H+              1.444e-10   1.406e-10    -9.840    -9.852    -0.012      0.00
   H2O             5.551e+01   1.000e+00     1.744    -0.000     0.000     17.67
C(-4)         0.000e+00
   CH4             0.000e+00   0.000e+00  -125.065  -125.065     0.000     36.04
C(4)          2.043e-04
   HCO3-           1.142e-04   1.111e-04    -3.942    -3.954    -0.012     25.93
   CO3-2           7.317e-05   6.551e-05    -4.136    -4.184    -0.048     -0.58
   CaCO3           1.690e-05   1.690e-05    -4.772    -4.772     0.000    -11.37
   CO2             2.007e-08   2.007e-08    -7.697    -7.697     0.000     34.28
   CaHCO3+         1.686e-12   1.641e-12   -11.773   -11.785    -0.012     10.83
   (CO2)2          6.670e-18   6.670e-18   -17.176   -17.176     0.000     67.73
Ca            2.043e-04
   Ca+2            1.872e-04   1.676e-04    -3.728    -3.776    -0.048    -14.86
   CaCO3           1.690e-05   1.690e-05    -4.772    -4.772     0.000    -11.37
   CaOH+           2.161e-07   2.101e-07    -6.665    -6.678    -0.012     (0)  
   CaHCO3+         1.686e-12   1.641e-12   -11.773   -11.785    -0.012     10.83
H(0)          4.521e-39
   H2              2.260e-39   2.261e-39   -38.646   -38.646     0.000     15.29
O(0)          9.925e-16
   O2              4.963e-16   4.963e-16   -15.304   -15.304     0.000     29.73

------------------------------Saturation indices-------------------------------

  Phase               SI** log IAP   log K(298 K, 527 atm)

  Aragonite        -0.09     -7.96   -7.87  CaCO3
  Calcite          -0.00     -7.96   -7.96  CaCO3
  CH4(g)         -121.93   -125.07   -3.14  CH4
  CO2(g)           -5.91     -7.70   -1.79  CO2
  H2(g)           -35.40    -38.65   -3.24  H2
  H2O(g)           -1.34     -0.00    1.34  H2O
  O2(g)           -12.13    -15.30   -3.17  O2

**For a gas, SI = log10(fugacity). Fugacity = pressure * phi / 1 atm.
  For ideal gases, phi = 1.

Reaction step 12.

Using solution 1.	
Using pure phase assemblage 1.	
Using pressure 1.	

-------------------------------Phase assemblage--------------------------------

                                                      Moles in assemblage
Phase               SI  log IAP  log K(T, P)   Initial       Final       Delta

Calcite          -0.00    -7.92     -7.92    1.000e+01   1.000e+01  -2.136e-04

-----------------------------Solution composition------------------------------

	Elements           Molality       Moles

	C                 2.136e-04   2.136e-04
	Ca                2.136e-04   2.136e-04

----------------------------Description of solution----------------------------

                                       pH  =   9.846      Charge balance
                                       pe  =   7.830      Adjusted to redox equilibrium
      Specific Conductance (µS/cm,  25°C)  = 60
                          Density (g/cm³)  =   1.02202
                               Volume (L)  =   0.97848
                        Viscosity (mPa s)  =   0.88800
                        Activity of water  =   1.000
                 Ionic strength (mol/kgw)  =   6.622e-04
                       Mass of water (kg)  =   1.000e+00
                 Total alkalinity (eq/kg)  =   4.271e-04
                       Total CO2 (mol/kg)  =   2.136e-04
                         Temperature (°C)  =  25.00
                           Pressure (atm)  = 579.37
                  Electrical balance (eq)  =  -1.218e-09
 Percent error, 100*(Cat-|An|)/(Cat+|An|)  =  -0.00
                               Iterations  =  17
                                  Total H  = 1.110124e+02
                                  Total O  = 5.550686e+01

----------------------------Distribution of species----------------------------

                                               Log       Log       Log    mole V
   Species          Molality    Activity  Molality  Activity     Gamma   cm³/mol

   OH-             1.169e-04   1.136e-04    -3.932    -3.945    -0.012     -2.28
   H+              1.467e-10   1.427e-10    -9.834    -9.846    -0.012      0.00
   H2O             5.551e+01   1.000e+00     1.744    -0.000     0.000     17.63
C(-4)         0.000e+00
   CH4             0.000e+00   0.000e+00  -125.095  -125.095     0.000     36.08
C(4)          2.136e-04
   HCO3-           1.170e-04   1.138e-04    -3.932    -3.944    -0.012     26.04
   CO3-2           7.788e-05   6.959e-05    -4.109    -4.157    -0.049     -0.23
   CaCO3           1.863e-05   1.863e-05    -4.730    -4.730     0.000    -11.11
   CO2             1.983e-08   1.983e-08    -7.703    -7.703     0.000     34.24
   CaHCO3+         1.807e-12   1.757e-12   -11.743   -11.755    -0.012     10.93
   (CO2)2          6.520e-18   6.521e-18   -17.186   -17.186     0.000     67.63
Ca            2.136e-04
   Ca+2            1.947e-04   1.740e-04    -3.711    -3.760    -0.049    -14.59
   CaCO3           1.863e-05   1.863e-05    -4.730    -4.730     0.000    -11.11
   CaOH+           2.237e-07   2.174e-07    -6.650    -6.663    -0.012     (0)  
   CaHCO3+         1.807e-12   1.757e-12   -11.743   -11.755    -0.012     10.93
H(0)          4.397e-39
   H2              2.199e-39   2.199e-39   -38.658   -38.658     0.000     15.32
O(0)          9.925e-16
   O2              4.962e-16   4.963e-16   -15.304   -15.304     0.000     29.68

------------------------------Saturation indices-------------------------------

  Phase               SI** log IAP   log K(298 K, 579 atm)

  Aragonite        -0.08     -7.92   -7.83  CaCO3
  Calcite          -0.00     -7.92   -7.92  CaCO3
  CH4(g)         -121.92   -125.10   -3.17  CH4
  CO2(g)           -5.88     -7.70   -1.82  CO2
  H2(g)           -35.40    -38.66   -3.26  H2
  H2O(g)           -1.32     -0.00    1.32  H2O
  O2(g)           -12.11    -15.30   -3.20  O2

**For a gas, SI = log10(fugacity). Fugacity = pressure * phi / 1 atm.
  For ideal gases, phi = 1.

Reaction step 13.

Using solution 1.	
Using pure phase assemblage 1.	
Using pressure 1.	

-------------------------------Phase assemblage--------------------------------

                                                      Moles in assemblage
Phase               SI  log IAP  log K(T, P)   Initial       Final       Delta

Calcite          -0.00    -7.88     -7.88    1.000e+01   1.000e+01  -2.231e-04

-----------------------------Solution composition------------------------------

	Elements           Molality       Moles

	C                 2.231e-04   2.231e-04
	Ca                2.231e-04   2.231e-04

----------------------------Description of solution----------------------------

                                       pH  =   9.839      Charge balance
                                       pe  =   7.835      Adjusted to redox equilibrium
      Specific Conductance (µS/cm,  25°C)  = 62
                          Density (g/cm³)  =   1.02415
                               Volume (L)  =   0.97644
                        Viscosity (mPa s)  =   0.88834
                        Activity of water  =   1.000
                 Ionic strength (mol/kgw)  =   6.902e-04
                       Mass of water (kg)  =   1.000e+00
                 Total alkalinity (eq/kg)  =   4.463e-04
                       Total CO2 (mol/kg)  =   2.231e-04
                         Temperature (°C)  =  25.00
                           Pressure (atm)  = 631.95
                  Electrical balance (eq)  =  -1.218e-09
 Percent error, 100*(Cat-|An|)/(Cat+|An|)  =  -0.00
                               Iterations  =  17
                                  Total H  = 1.110124e+02
                                  Total O  = 5.550689e+01

----------------------------Distribution of species----------------------------

                                               Log       Log       Log    mole V
   Species          Molality    Activity  Molality  Activity     Gamma   cm³/mol

   OH-             1.197e-04   1.162e-04    -3.922    -3.935    -0.013     -2.15
   H+              1.490e-10   1.449e-10    -9.827    -9.839    -0.012      0.00
   H2O             5.551e+01   1.000e+00     1.744    -0.000     0.000     17.59
C(-4)         0.000e+00
   CH4             0.000e+00   0.000e+00  -125.126  -125.126     0.000     36.13
C(4)          2.231e-04
   HCO3-           1.198e-04   1.165e-04    -3.921    -3.934    -0.012     26.16
   CO3-2           8.277e-05   7.381e-05    -4.082    -4.132    -0.050      0.11
   CaCO3           2.052e-05   2.052e-05    -4.688    -4.688     0.000    -10.85
   CO2             1.959e-08   1.959e-08    -7.708    -7.708     0.000     34.19
   CaHCO3+         1.936e-12   1.882e-12   -11.713   -11.725    -0.012     11.02
   (CO2)2          6.376e-18   6.376e-18   -17.195   -17.195     0.000     67.55
Ca            2.231e-04
   Ca+2            2.024e-04   1.805e-04    -3.694    -3.744    -0.050    -14.32
   CaCO3           2.052e-05   2.052e-05    -4.688    -4.688     0.000    -10.85
   CaOH+           2.315e-07   2.249e-07    -6.635    -6.648    -0.013     (0)  
   CaHCO3+         1.936e-12   1.882e-12   -11.713   -11.725    -0.012     11.02
H(0)          4.276e-39
   H2              2.138e-39   2.139e-39   -38.670   -38.670     0.000     15.34
O(0)          9.927e-16
   O2              4.963e-16   4.964e-16   -15.304   -15.304     0.000     29.62

------------------------------Saturation indices-------------------------------

  Phase               SI** log IAP   log K(298 K, 632 atm)

  Aragonite        -0.08     -7.88   -7.80  CaCO3
  Calcite          -0.00     -7.88   -7.88  CaCO3
  CH4(g)         -121.92   -125.13   -3.21  CH4
  CO2(g)           -5.86     -7.71   -1.85  CO2
  H2(g)           -35.40    -38.67   -3.27  H2
  H2O(g)           -1.31     -0.00    1.31  H2O
  O2(g)           -12.08    -15.30   -3.22  O2

**For a gas, SI = log10(fugacity). Fugacity = pressure * phi / 1 atm.
  For ideal gases, phi = 1.

Reaction step 14.

Using solution 1.	
Using pure phase assemblage 1.	
Using pressure 1.	

-------------------------------Phase assemblage--------------------------------

                                                      Moles in assemblage
Phase               SI  log IAP  log K(T, P)   Initial       Final       Delta

Calcite          -0.00    -7.83     -7.83    1.000e+01   1.000e+01  -2.331e-04

-----------------------------Solution composition------------------------------

	Elements           Molality       Moles

	C                 2.331e-04   2.331e-04
	Ca                2.331e-04   2.331e-04

----------------------------Description of solution----------------------------

                                       pH  =   9.832      Charge balance
                                       pe  =   7.840      Adjusted to redox equilibrium
      Specific Conductance (µS/cm,  25°C)  = 65
                          Density (g/cm³)  =   1.02626
                               Volume (L)  =   0.97443
                        Viscosity (mPa s)  =   0.88878
                        Activity of water  =   1.000
                 Ionic strength (mol/kgw)  =   7.188e-04
                       Mass of water (kg)  =   1.000e+00
                 Total alkalinity (eq/kg)  =   4.661e-04
                       Total CO2 (mol/kg)  =   2.331e-04
                         Temperature (°C)  =  25.00
                           Pressure (atm)  = 684.53
                  Electrical balance (eq)  =  -1.218e-09
 Percent error, 100*(Cat-|An|)/(Cat+|An|)  =  -0.00
                               Iterations  =  17
                                  Total H  = 1.110124e+02
                                  Total O  = 5.550692e+01

----------------------------Distribution of species----------------------------

                                               Log       Log       Log    mole V
   Species          Molality    Activity  Molality  Activity     Gamma   cm³/mol

   OH-             1.224e-04   1.189e-04    -3.912    -3.925    -0.013     -2.01
   H+              1.513e-10   1.471e-10    -9.820    -9.832    -0.012      0.00
   H2O             5.551e+01   1.000e+00     1.744    -0.000     0.000     17.56
C(-4)         0.000e+00
   CH4             0.000e+00   0.000e+00  -125.156  -125.156     0.000     36.17
C(4)          2.331e-04
   HCO3-           1.226e-04   1.191e-04    -3.911    -3.924    -0.013     26.27
   CO3-2           8.783e-05   7.817e-05    -4.056    -4.107    -0.051      0.43
   CaCO3           2.258e-05   2.258e-05    -4.646    -4.646     0.000    -10.60
   CO2             1.936e-08   1.936e-08    -7.713    -7.713     0.000     34.15
   CaHCO3+         2.074e-12   2.015e-12   -11.683   -11.696    -0.013     11.11
   (CO2)2          6.235e-18   6.236e-18   -17.205   -17.205     0.000     67.46
Ca            2.331e-04
   Ca+2            2.103e-04   1.871e-04    -3.677    -3.728    -0.051    -14.06
   CaCO3           2.258e-05   2.258e-05    -4.646    -4.646     0.000    -10.60
   CaOH+           2.397e-07   2.328e-07    -6.620    -6.633    -0.013     (0)  
   CaHCO3+         2.074e-12   2.015e-12   -11.683   -11.696    -0.013     11.11
H(0)          4.159e-39
   H2              2.080e-39   2.080e-39   -38.682   -38.682     0.000     15.36
O(0)          9.924e-16
   O2              4.962e-16   4.963e-16   -15.304   -15.304     0.000     29.57

------------------------------Saturation indices-------------------------------

  Phase               SI** log IAP   log K(298 K, 685 atm)

  Aragonite        -0.08     -7.83   -7.76  CaCO3
  Calcite          -0.00     -7.83   -7.83  CaCO3
  CH4(g)         -121.91   -125.16   -3.24  CH4
  CO2(g)           -5.83     -7.71   -1.88  CO2
  H2(g)           -35.40    -38.68   -3.29  H2
  H2O(g)           -1.29     -0.00    1.29  H2O
  O2(g)           -12.05    -15.30   -3.25  O2

**For a gas, SI = log10(fugacity). Fugacity = pressure * phi / 1 atm.
  For ideal gases, phi = 1.

Reaction step 15.

Using solution 1.	
Using pure phase assemblage 1.	
Using pressure 1.	

-------------------------------Phase assemblage--------------------------------

                                                      Moles in assemblage
Phase               SI  log IAP  log K(T, P)   Initial       Final       Delta

Calcite          -0.00    -7.80     -7.80    1.000e+01   1.000e+01  -2.433e-04

-----------------------------Solution composition------------------------------

	Elements           Molality       Moles

	C                 2.433e-04   2.433e-04
	Ca                2.433e-04   2.433e-04

----------------------------Description of solution----------------------------

                                       pH  =   9.826      Charge balance
                                       pe  =   7.846      Adjusted to redox equilibrium
      Specific Conductance (µS/cm,  25°C)  = 67
                          Density (g/cm³)  =   1.02835
                               Volume (L)  =   0.97245
                        Viscosity (mPa s)  =   0.88930
                        Activity of water  =   1.000
                 Ionic strength (mol/kgw)  =   7.482e-04
                       Mass of water (kg)  =   1.000e+00
                 Total alkalinity (eq/kg)  =   4.867e-04
                       Total CO2 (mol/kg)  =   2.433e-04
                         Temperature (°C)  =  25.00
                           Pressure (atm)  = 737.11
                  Electrical balance (eq)  =  -1.217e-09
 Percent error, 100*(Cat-|An|)/(Cat+|An|)  =  -0.00
                               Iterations  =  17
                                  Total H  = 1.110124e+02
                                  Total O  = 5.550695e+01

----------------------------Distribution of species----------------------------

                                               Log       Log       Log    mole V
   Species          Molality    Activity  Molality  Activity     Gamma   cm³/mol

   OH-             1.252e-04   1.215e-04    -3.902    -3.915    -0.013     -1.88
   H+              1.537e-10   1.493e-10    -9.813    -9.826    -0.012      0.00
   H2O             5.551e+01   1.000e+00     1.744    -0.000     0.000     17.52
C(-4)         0.000e+00
   CH4             0.000e+00   0.000e+00  -125.186  -125.186     0.000     36.20
C(4)          2.433e-04
   HCO3-           1.254e-04   1.218e-04    -3.902    -3.914    -0.013     26.38
   CO3-2           9.308e-05   8.268e-05    -4.031    -4.083    -0.051      0.75
   CaCO3           2.482e-05   2.483e-05    -4.605    -4.605     0.000    -10.37
   CO2             1.913e-08   1.913e-08    -7.718    -7.718     0.000     34.11
   CaHCO3+         2.221e-12   2.156e-12   -11.653   -11.666    -0.013     11.20
   (CO2)2          6.099e-18   6.099e-18   -17.215   -17.215     0.000     67.37
Ca            2.433e-04
   Ca+2            2.183e-04   1.939e-04    -3.661    -3.712    -0.052    -13.81
   CaCO3           2.482e-05   2.483e-05    -4.605    -4.605     0.000    -10.37
   CaOH+           2.482e-07   2.409e-07    -6.605    -6.618    -0.013     (0)  
   CaHCO3+         2.221e-12   2.156e-12   -11.653   -11.666    -0.013     11.20
H(0)          4.044e-39
   H2              2.022e-39   2.022e-39   -38.694   -38.694     0.000     15.38
O(0)          9.927e-16
   O2              4.963e-16   4.964e-16   -15.304   -15.304     0.000     29.52

------------------------------Saturation indices-------------------------------

  Phase               SI** log IAP   log K(298 K, 737 atm)

  Aragonite        -0.07     -7.80   -7.72  CaCO3
  Calcite          -0.00     -7.80   -7.80  CaCO3
  CH4(g)         -121.91   -125.19   -3.27  CH4
  CO2(g)           -5.80     -7.72   -1.91  CO2
  H2(g)           -35.39    -38.69   -3.30  H2
  H2O(g)           -1.27     -0.00    1.27  H2O
  O2(g)           -12.03    -15.30   -3.28  O2

**For a gas, SI = log10(fugacity). Fugacity = pressure * phi / 1 atm.
  For ideal gases, phi = 1.

Reaction step 16.

Using solution 1.	
Using pure phase assemblage 1.	
Using pressure 1.	

-------------------------------Phase assemblage--------------------------------

                                                      Moles in assemblage
Phase               SI  log IAP  log K(T, P)   Initial       Final       Delta

Calcite           0.00    -7.76     -7.76    1.000e+01   1.000e+01  -2.540e-04

-----------------------------Solution composition------------------------------

	Elements           Molality       Moles

	C                 2.540e-04   2.540e-04
	Ca                2.540e-04   2.540e-04

----------------------------Description of solution----------------------------

                                       pH  =   9.819      Charge balance
                                       pe  =   7.851      Adjusted to redox equilibrium
      Specific Conductance (µS/cm,  25°C)  = 70
                          Density (g/cm³)  =   1.03042
                               Volume (L)  =   0.97050
                        Viscosity (mPa s)  =   0.88991
                        Activity of water  =   1.000
                 Ionic strength (mol/kgw)  =   7.782e-04
                       Mass of water (kg)  =   1.000e+00
                 Total alkalinity (eq/kg)  =   5.080e-04
                       Total CO2 (mol/kg)  =   2.540e-04
                         Temperature (°C)  =  25.00
                           Pressure (atm)  = 789.68
                  Electrical balance (eq)  =  -1.216e-09
 Percent error, 100*(Cat-|An|)/(Cat+|An|)  =  -0.00
                               Iterations  =  17
                                  Total H  = 1.110124e+02
                                  Total O  = 5.550698e+01

----------------------------Distribution of species----------------------------

                                               Log       Log       Log    mole V
   Species          Molality    Activity  Molality  Activity     Gamma   cm³/mol

   OH-             1.280e-04   1.241e-04    -3.893    -3.906    -0.013     -1.75
   H+              1.561e-10   1.516e-10    -9.807    -9.819    -0.013      0.00
   H2O             5.551e+01   1.000e+00     1.744    -0.000     0.000     17.48
C(-4)         0.000e+00
   CH4             0.000e+00   0.000e+00  -125.216  -125.216     0.000     36.24
C(4)          2.540e-04
   HCO3-           1.282e-04   1.244e-04    -3.892    -3.905    -0.013     26.48
   CO3-2           9.850e-05   8.733e-05    -4.007    -4.059    -0.052      1.06
   CaCO3           2.727e-05   2.728e-05    -4.564    -4.564     0.000    -10.13
   CO2             1.890e-08   1.890e-08    -7.724    -7.724     0.000     34.06
   CaHCO3+         2.377e-12   2.307e-12   -11.624   -11.637    -0.013     11.29
   (CO2)2          5.966e-18   5.967e-18   -17.224   -17.224     0.000     67.29
Ca            2.540e-04
   Ca+2            2.265e-04   2.007e-04    -3.645    -3.697    -0.052    -13.57
   CaCO3           2.727e-05   2.728e-05    -4.564    -4.564     0.000    -10.13
   CaOH+           2.570e-07   2.493e-07    -6.590    -6.603    -0.013     (0)  
   CaHCO3+         2.377e-12   2.307e-12   -11.624   -11.637    -0.013     11.29
H(0)          3.932e-39
   H2              1.966e-39   1.966e-39   -38.706   -38.706     0.000     15.40
O(0)          9.926e-16
   O2              4.963e-16   4.964e-16   -15.304   -15.304     0.000     29.47

------------------------------Saturation indices-------------------------------

  Phase               SI** log IAP   log K(298 K, 790 atm)

  Aragonite        -0.07     -7.76   -7.68  CaCO3
  Calcite           0.00     -7.76   -7.76  CaCO3
  CH4(g)         -121.91   -125.22   -3.31  CH4
  CO2(g)           -5.78     -7.72   -1.95  CO2
  H2(g)           -35.39    -38.71   -3.32  H2
  H2O(g)           -1.26     -0.00    1.26  H2O
  O2(g)           -12.00    -15.30   -3.30  O2

**For a gas, SI = log10(fugacity). Fugacity = pressure * phi / 1 atm.
  For ideal gases, phi = 1.

Reaction step 17.

Using solution 1.	
Using pure phase assemblage 1.	
Using pressure 1.	

-------------------------------Phase assemblage--------------------------------

                                                      Moles in assemblage
Phase               SI  log IAP  log K(T, P)   Initial       Final       Delta

Calcite          -0.00    -7.72     -7.72    1.000e+01   1.000e+01  -2.650e-04

-----------------------------Solution composition------------------------------

	Elements           Molality       Moles

	C                 2.650e-04   2.650e-04
	Ca                2.650e-04   2.650e-04

----------------------------Description of solution----------------------------

                                       pH  =   9.813      Charge balance
                                       pe  =   7.856      Adjusted to redox equilibrium
      Specific Conductance (µS/cm,  25°C)  = 72
                          Density (g/cm³)  =   1.03247
                               Volume (L)  =   0.96857
                        Viscosity (mPa s)  =   0.89060
                        Activity of water  =   1.000
                 Ionic strength (mol/kgw)  =   8.089e-04
                       Mass of water (kg)  =   1.000e+00
                 Total alkalinity (eq/kg)  =   5.301e-04
                       Total CO2 (mol/kg)  =   2.650e-04
                         Temperature (°C)  =  25.00
                           Pressure (atm)  = 842.26
                  Electrical balance (eq)  =  -1.217e-09
 Percent error, 100*(Cat-|An|)/(Cat+|An|)  =  -0.00
                               Iterations  =  18
                                  Total H  = 1.110124e+02
                                  Total O  = 5.550701e+01

----------------------------Distribution of species----------------------------

                                               Log       Log       Log    mole V
   Species          Molality    Activity  Molality  Activity     Gamma   cm³/mol

   OH-             1.307e-04   1.267e-04    -3.884    -3.897    -0.014     -1.63
   H+              1.586e-10   1.539e-10    -9.800    -9.813    -0.013      0.00
   H2O             5.551e+01   1.000e+00     1.744    -0.000     0.000     17.45
C(-4)         0.000e+00
   CH4             0.000e+00   0.000e+00  -125.246  -125.246     0.000     36.28
C(4)          2.650e-04
   HCO3-           1.310e-04   1.270e-04    -3.883    -3.896    -0.013     26.58
   CO3-2           1.041e-04   9.212e-05    -3.982    -4.036    -0.053      1.36
   CaCO3           2.994e-05   2.995e-05    -4.524    -4.524     0.000     -9.91
   CO2             1.868e-08   1.868e-08    -7.729    -7.729     0.000     34.02
   CaHCO3+         2.544e-12   2.468e-12   -11.594   -11.608    -0.013     11.37
   (CO2)2          5.838e-18   5.838e-18   -17.234   -17.234     0.000     67.21
Ca            2.650e-04
   Ca+2            2.348e-04   2.078e-04    -3.629    -3.682    -0.053    -13.34
   CaCO3           2.994e-05   2.995e-05    -4.524    -4.524     0.000     -9.91
   CaOH+           2.661e-07   2.580e-07    -6.575    -6.588    -0.013     (0)  
   CaHCO3+         2.544e-12   2.468e-12   -11.594   -11.608    -0.013     11.37
H(0)          3.823e-39
   H2              1.911e-39   1.912e-39   -38.719   -38.719     0.000     15.42
O(0)          9.924e-16
   O2              4.962e-16   4.963e-16   -15.304   -15.304     0.000     29.43

------------------------------Saturation indices-------------------------------

  Phase               SI** log IAP   log K(298 K, 842 atm)

  Aragonite        -0.07     -7.72   -7.65  CaCO3
  Calcite          -0.00     -7.72   -7.72  CaCO3
  CH4(g)         -121.90   -125.25   -3.34  CH4
  CO2(g)           -5.75     -7.73   -1.98  CO2
  H2(g)           -35.39    -38.72   -3.33  H2
  H2O(g)           -1.24     -0.00    1.24  H2O
  O2(g)           -11.97    -15.30   -3.33  O2

**For a gas, SI = log10(fugacity). Fugacity = pressure * phi / 1 atm.
  For ideal gases, phi = 1.

Reaction step 18.

Using solution 1.	
Using pure phase assemblage 1.	
Using pressure 1.	

-------------------------------Phase assemblage--------------------------------

                                                      Moles in assemblage
Phase               SI  log IAP  log K(T, P)   Initial       Final       Delta

Calcite          -0.00    -7.68     -7.68    1.000e+01   1.000e+01  -2.765e-04

-----------------------------Solution composition------------------------------

	Elements           Molality       Moles

	C                 2.765e-04   2.765e-04
	Ca                2.765e-04   2.765e-04

----------------------------Description of solution----------------------------

                                       pH  =   9.806      Charge balance
                                       pe  =   7.862      Adjusted to redox equilibrium
      Specific Conductance (µS/cm,  25°C)  = 75
                          Density (g/cm³)  =   1.03451
                               Volume (L)  =   0.96667
                        Viscosity (mPa s)  =   0.89139
                        Activity of water  =   1.000
                 Ionic strength (mol/kgw)  =   8.403e-04
                       Mass of water (kg)  =   1.000e+00
                 Total alkalinity (eq/kg)  =   5.530e-04
                       Total CO2 (mol/kg)  =   2.765e-04
                         Temperature (°C)  =  25.00
                           Pressure (atm)  = 894.84
                  Electrical balance (eq)  =  -1.217e-09
 Percent error, 100*(Cat-|An|)/(Cat+|An|)  =  -0.00
                               Iterations  =  18
                                  Total H  = 1.110124e+02
                                  Total O  = 5.550705e+01

----------------------------Distribution of species----------------------------

                                               Log       Log       Log    mole V
   Species          Molality    Activity  Molality  Activity     Gamma   cm³/mol

   OH-             1.335e-04   1.293e-04    -3.875    -3.888    -0.014     -1.51
   H+              1.610e-10   1.563e-10    -9.793    -9.806    -0.013      0.00
   H2O             5.551e+01   1.000e+00     1.744    -0.000     0.000     17.42
C(-4)         0.000e+00
   CH4             0.000e+00   0.000e+00  -125.277  -125.277     0.000     36.31
C(4)          2.765e-04
   HCO3-           1.337e-04   1.296e-04    -3.874    -3.887    -0.013     26.68
   CO3-2           1.099e-04   9.706e-05    -3.959    -4.013    -0.054      1.66
   CaCO3           3.285e-05   3.286e-05    -4.483    -4.483     0.000     -9.69
   CO2             1.846e-08   1.846e-08    -7.734    -7.734     0.000     33.98
   CaHCO3+         2.722e-12   2.639e-12   -11.565   -11.579    -0.013     11.45
   (CO2)2          5.713e-18   5.713e-18   -17.243   -17.243     0.000     67.13
Ca            2.765e-04
   Ca+2            2.434e-04   2.149e-04    -3.614    -3.668    -0.054    -13.11
   CaCO3           3.285e-05   3.286e-05    -4.483    -4.483     0.000     -9.69
   CaOH+           2.756e-07   2.671e-07    -6.560    -6.573    -0.014     (0)  
   CaHCO3+         2.722e-12   2.639e-12   -11.565   -11.579    -0.013     11.45
H(0)          3.716e-39
   H2              1.858e-39   1.858e-39   -38.731   -38.731     0.000     15.44
O(0)          9.925e-16
   O2              4.963e-16   4.963e-16   -15.304   -15.304     0.000     29.38

------------------------------Saturation indices-------------------------------

  Phase               SI** log IAP   log K(298 K, 895 atm)

  Aragonite        -0.07     -7.68   -7.61  CaCO3
  Calcite          -0.00     -7.68   -7.68  CaCO3
  CH4(g)         -121.90   -125.28   -3.38  CH4
  CO2(g)           -5.73     -7.73   -2.01  CO2
  H2(g)           -35.39    -38.73   -3.34  H2
  H2O(g)           -1.23     -0.00    1.23  H2O
  O2(g)           -11.95    -15.30   -3.36  O2

**For a gas, SI = log10(fugacity). Fugacity = pressure * phi / 1 atm.
  For ideal gases, phi = 1.

Reaction step 19.

Using solution 1.	
Using pure phase assemblage 1.	
Using pressure 1.	

-------------------------------Phase assemblage--------------------------------

                                                      Moles in assemblage
Phase               SI  log IAP  log K(T, P)   Initial       Final       Delta

Calcite          -0.00    -7.64     -7.64    1.000e+01   1.000e+01  -2.884e-04

-----------------------------Solution composition------------------------------

	Elements           Molality       Moles

	C                 2.884e-04   2.884e-04
	Ca                2.884e-04   2.884e-04

----------------------------Description of solution----------------------------

                                       pH  =   9.800      Charge balance
                                       pe  =   7.867      Adjusted to redox equilibrium
      Specific Conductance (µS/cm,  25°C)  = 77
                          Density (g/cm³)  =   1.03653
                               Volume (L)  =   0.96479
                        Viscosity (mPa s)  =   0.89226
                        Activity of water  =   1.000
                 Ionic strength (mol/kgw)  =   8.724e-04
                       Mass of water (kg)  =   1.000e+00
                 Total alkalinity (eq/kg)  =   5.768e-04
                       Total CO2 (mol/kg)  =   2.884e-04
                         Temperature (°C)  =  25.00
                           Pressure (atm)  = 947.42
                  Electrical balance (eq)  =  -1.217e-09
 Percent error, 100*(Cat-|An|)/(Cat+|An|)  =  -0.00
                               Iterations  =  18
                                  Total H  = 1.110124e+02
                                  Total O  = 5.550708e+01

----------------------------Distribution of species----------------------------

                                               Log       Log       Log    mole V
   Species          Molality    Activity  Molality  Activity     Gamma   cm³/mol

   OH-             1.362e-04   1.319e-04    -3.866    -3.880    -0.014     -1.39
   H+              1.636e-10   1.587e-10    -9.786    -9.800    -0.013      0.00
   H2O             5.551e+01   1.000e+00     1.744    -0.000     0.000     17.38
C(-4)         0.000e+00
   CH4             0.000e+00   0.000e+00  -125.307  -125.307     0.000     36.34
C(4)          2.884e-04
   HCO3-           1.364e-04   1.322e-04    -3.865    -3.879    -0.014     26.78
   CO3-2           1.159e-04   1.022e-04    -3.936    -3.991    -0.055      1.94
   CaCO3           3.601e-05   3.602e-05    -4.444    -4.443     0.000     -9.48
   CO2             1.825e-08   1.825e-08    -7.739    -7.739     0.000     33.94
   CaHCO3+         2.912e-12   2.822e-12   -11.536   -11.549    -0.014     11.53
   (CO2)2          5.591e-18   5.592e-18   -17.253   -17.252     0.000     67.05
Ca            2.884e-04
   Ca+2            2.521e-04   2.221e-04    -3.598    -3.653    -0.055    -12.89
   CaCO3           3.601e-05   3.602e-05    -4.444    -4.443     0.000     -9.48
   CaOH+           2.855e-07   2.765e-07    -6.544    -6.558    -0.014     (0)  
   CaHCO3+         2.912e-12   2.822e-12   -11.536   -11.549    -0.014     11.53
H(0)          3.611e-39
   H2              1.806e-39   1.806e-39   -38.743   -38.743     0.000     15.46
O(0)          9.925e-16
   O2              4.963e-16   4.964e-16   -15.304   -15.304     0.000     29.33

------------------------------Saturation indices-------------------------------

  Phase               SI** log IAP   log K(298 K, 947 atm)

  Aragonite        -0.06     -7.64   -7.58  CaCO3
  Calcite          -0.00     -7.64   -7.64  CaCO3
  CH4(g)         -121.89   -125.31   -3.41  CH4
  CO2(g)           -5.70     -7.74   -2.04  CO2
  H2(g)           -35.38    -38.74   -3.36  H2
  H2O(g)           -1.21     -0.00    1.21  H2O
  O2(g)           -11.92    -15.30   -3.39  O2

**For a gas, SI = log10(fugacity). Fugacity = pressure * phi / 1 atm.
  For ideal gases, phi = 1.

Reaction step 20.

Using solution 1.	
Using pure phase assemblage 1.	
Using pressure 1.	

-------------------------------Phase assemblage--------------------------------

                                                      Moles in assemblage
Phase               SI  log IAP  log K(T, P)   Initial       Final       Delta

Calcite          -0.00    -7.61     -7.61    1.000e+01   1.000e+01  -3.007e-04

-----------------------------Solution composition------------------------------

	Elements           Molality       Moles

	C                 3.007e-04   3.007e-04
	Ca                3.007e-04   3.007e-04

----------------------------Description of solution----------------------------

                                       pH  =   9.793      Charge balance
                                       pe  =   7.873      Adjusted to redox equilibrium
      Specific Conductance (µS/cm,  25°C)  = 80
                          Density (g/cm³)  =   1.03854
                               Volume (L)  =   0.96292
                        Viscosity (mPa s)  =   0.89322
                        Activity of water  =   1.000
                 Ionic strength (mol/kgw)  =   9.053e-04
                       Mass of water (kg)  =   1.000e+00
                 Total alkalinity (eq/kg)  =   6.014e-04
                       Total CO2 (mol/kg)  =   3.007e-04
                         Temperature (°C)  =  25.00
                           Pressure (atm)  = 1000.00
                  Electrical balance (eq)  =  -1.217e-09
 Percent error, 100*(Cat-|An|)/(Cat+|An|)  =  -0.00
                               Iterations  =  18
                                  Total H  = 1.110124e+02
                                  Total O  = 5.550712e+01

----------------------------Distribution of species----------------------------

                                               Log       Log       Log    mole V
   Species          Molality    Activity  Molality  Activity     Gamma   cm³/mol

   OH-             1.389e-04   1.344e-04    -3.857    -3.871    -0.014     -1.28
   H+              1.661e-10   1.611e-10    -9.780    -9.793    -0.013      0.00
   H2O             5.551e+01   1.000e+00     1.744    -0.000     0.000     17.35
C(-4)         0.000e+00
   CH4             0.000e+00   0.000e+00  -125.338  -125.337     0.000     36.37
C(4)          3.007e-04
   HCO3-           1.392e-04   1.348e-04    -3.856    -3.870    -0.014     26.88
   CO3-2           1.221e-04   1.074e-04    -3.913    -3.969    -0.056      2.22
   CaCO3           3.946e-05   3.947e-05    -4.404    -4.404     0.000     -9.28
   CO2             1.804e-08   1.804e-08    -7.744    -7.744     0.000     33.90
   CaHCO3+         3.114e-12   3.016e-12   -11.507   -11.521    -0.014     11.60
   (CO2)2          5.473e-18   5.474e-18   -17.262   -17.262     0.000     66.97
Ca            3.007e-04
   Ca+2            2.610e-04   2.295e-04    -3.583    -3.639    -0.056    -12.67
   CaCO3           3.946e-05   3.947e-05    -4.404    -4.404     0.000     -9.28
   CaOH+           2.957e-07   2.862e-07    -6.529    -6.543    -0.014     (0)  
   CaHCO3+         3.114e-12   3.016e-12   -11.507   -11.521    -0.014     11.60
H(0)          3.510e-39
   H2              1.755e-39   1.755e-39   -38.756   -38.756     0.000     15.48
O(0)          9.924e-16
   O2              4.962e-16   4.963e-16   -15.304   -15.304     0.000     29.29

------------------------------Saturation indices-------------------------------

  Phase               SI** log IAP   log K(298 K, 1000 atm)

  Aragonite        -0.06     -7.61   -7.55  CaCO3
  Calcite          -0.00     -7.61   -7.61  CaCO3
  CH4(g)         -121.89   -125.34   -3.45  CH4
  CO2(g)           -5.67     -7.74   -2.07  CO2
  H2(g)           -35.38    -38.76   -3.37  H2
  H2O(g)           -1.20     -0.00    1.20  H2O
  O2(g)           -11.89    -15.30   -3.41  O2

**For a gas, SI = log10(fugacity). Fugacity = pressure * phi / 1 atm.
  For ideal gases, phi = 1.

------------------
End of simulation.
------------------

------------------------------------
Reading input data for simulation 2.
------------------------------------

