WARNING: Database file from DATABASE keyword is used; command line argument ignored.
   Input file: CO2_sp_IS
  Output file: CO2_sp_IS.out
Database file: ../database/pitzer.dat

------------------
Reading data base.
------------------

	SOLUTION_MASTER_SPECIES
	SOLUTION_SPECIES
	PHASES
	PITZER
	GAS_BINARY_PARAMETERS
	EXCHANGE_MASTER_SPECIES
	EXCHANGE_SPECIES
	SURFACE_MASTER_SPECIES
	SURFACE_SPECIES
	MEAN_GAMMAS
	END
------------------------------------
Reading input data for simulation 1.
------------------------------------

	DATABASE ../database/pitzer.dat
	SELECTED_OUTPUT 101
	    file                 CO2_sp_IS_101.sel
	USER_PUNCH 101
	    headings Mu SC
	    start
	10 PUNCH STR_F$(MU, 20, 12)
	20 PUNCH STR_F$(SC, 20, 10)
	    end
	SOLUTION 1
	SELECTED_OUTPUT
	 reset false
	 file co2_25.prn
	USER_PUNCH
	  1 sc$ = chr$(59)
	 10 for i = 1.1 to 1000 step 20
	 20   punch 'SOLUTION 1' + sc$ + ' -temp 25' + sc$ + ' pH 3 charge' + EOL$ + 'C(4) 1 CO2(g) ' + str$(log10(i)) + sc$ + '-pressure ' + str$(i) + EOL$ + 'END' + EOL$
	 30 next i
	END
-------------------------------------------
Beginning of initial solution calculations.
-------------------------------------------

Initial solution 1.	

WARNING: USER_PUNCH: Headings count does not match number of calls to PUNCH.

-----------------------------Solution composition------------------------------

	Elements           Molality       Moles

	Pure water     

----------------------------Description of solution----------------------------

                                       pH  =   7.000    
                                       pe  =   4.000    
      Specific Conductance (µS/cm,  25°C)  = 0
                          Density (g/cm³)  =   0.99704
                               Volume (L)  =   1.00297
                        Viscosity (mPa s)  =   0.89002
                        Activity of water  =   1.000
                 Ionic strength (mol/kgw)  =   1.006e-07
                       Mass of water (kg)  =   1.000e+00
                 Total alkalinity (eq/kg)  =   1.216e-09
                         Temperature (°C)  =  25.00
                  Electrical balance (eq)  =  -1.216e-09
 Percent error, 100*(Cat-|An|)/(Cat+|An|)  =  -0.60
                               Iterations  =   3
                         Gamma iterations  =   2
                      Osmotic coefficient  =   0.99988
                         Density of water  =   0.99704
                                  Total H  = 1.110124e+02
                                  Total O  = 5.550622e+01

----------------------------Distribution of species----------------------------

                                                    MacInnes  MacInnes
                                MacInnes       Log       Log       Log    mole V
   Species          Molality    Activity  Molality  Activity     Gamma   cm³/mol

   OH-             1.013e-07   1.012e-07    -6.995    -6.995    -0.000     -4.14
   H+              1.000e-07   1.000e-07    -7.000    -7.000    -0.000      0.00
   H2O             5.551e+01   1.000e+00     1.744    -0.000     0.000     18.07

------------------------------Saturation indices-------------------------------

  Phase               SI** log IAP   log K(298 K,   1 atm)

  H2O(g)           -1.50     -0.00    1.50  H2O

**For a gas, SI = log10(fugacity). Fugacity = pressure * phi / 1 atm.
  For ideal gases, phi = 1.

------------------
End of simulation.
------------------

------------------------------------
Reading input data for simulation 2.
------------------------------------

	PRINT
	 selected_output false
	USER_GRAPH
	 -chart_title "Using: Initial Equilibrations"
	 -plot_csv_file co2.dat
	 -axis_titles "Pressure / atm" "CO2 / (mol/kgw)"
	 -axis_scale x_axis 0 600
	 -axis_scale y_axis 0 2
	 -initial_solutions true
	 10 x = PR_P("CO2(g)")
	 20 graph_x pressure # tot("Na")
	 30 graph_y tot("C(4)")
	 -end

	Reading data from co2_25.prn ...
	SOLUTION 1
	 temp 25
	 pH 3 charge
	C(4) 1 CO2(g)   4.1393e-02
	pressure   1.1000e+00
	END
-------------------------------------------
Beginning of initial solution calculations.
-------------------------------------------

Initial solution 1.	

-----------------------------Solution composition------------------------------

	Elements           Molality       Moles

	C(4)              3.762e-02   3.762e-02  Equilibrium with CO2(g)

----------------------------Description of solution----------------------------

                                       pH  =   3.884      Charge balance
                                       pe  =   4.000    
      Specific Conductance (µS/cm,  25°C)  = 51
                          Density (g/cm³)  =   0.99740
                               Volume (L)  =   1.00427
                        Viscosity (mPa s)  =   0.89261
                        Activity of water  =   0.999
                 Ionic strength (mol/kgw)  =   1.323e-04
                       Mass of water (kg)  =   1.000e+00
                 Total alkalinity (eq/kg)  =   3.367e-16
                       Total CO2 (mol/kg)  =   3.762e-02
                         Temperature (°C)  =  25.00
                           Pressure (atm)  =  1.10
                  Electrical balance (eq)  =  -3.367e-16
 Percent error, 100*(Cat-|An|)/(Cat+|An|)  =  -0.00
                               Iterations  =   8
                         Gamma iterations  =   3
                      Osmotic coefficient  =   0.99947
                         Density of water  =   0.99705
                                  Total H  = 1.110127e+02
                                  Total O  = 5.558158e+01

----------------------------Distribution of species----------------------------

                                                    MacInnes  MacInnes
                                MacInnes       Log       Log       Log    mole V
   Species          Molality    Activity  Molality  Activity     Gamma   cm³/mol

   H+              1.323e-04   1.305e-04    -3.878    -3.884    -0.006      0.00
   OH-             7.851e-11   7.749e-11   -10.105   -10.111    -0.006     -4.13
   H2O             5.551e+01   9.993e-01     1.744    -0.000     0.000     18.07
C(4)          3.762e-02
   CO2             3.749e-02   3.745e-02    -1.426    -1.427    -0.000     34.79
   HCO3-           1.323e-04   1.306e-04    -3.878    -3.884    -0.006     23.08
   CO3-2           4.836e-11   4.582e-11   -10.316   -10.339    -0.023     -4.99

------------------------------Saturation indices-------------------------------

  Phase               SI** log IAP   log K(298 K,   1 atm)

  CO2(g)            0.04     -1.43   -1.47  CO2	 Pressure   1.1 atm, phi 0.994
  H2O(g)           -1.50     -0.00    1.50  H2O

**For a gas, SI = log10(fugacity). Fugacity = pressure * phi / 1 atm.
  For ideal gases, phi = 1.

------------------
End of simulation.
------------------

------------------------------------
Reading input data for simulation 3.
------------------------------------

		SOLUTION 1
	 temp 25
	 pH 3 charge
	C(4) 1 CO2(g)   1.3243e+00
	pressure   2.1100e+01
	END
-------------------------------------------
Beginning of initial solution calculations.
-------------------------------------------

Initial solution 1.	

-----------------------------Solution composition------------------------------

	Elements           Molality       Moles

	C(4)              6.338e-01   6.338e-01  Equilibrium with CO2(g)

----------------------------Description of solution----------------------------

                                       pH  =   3.273      Charge balance
                                       pe  =   4.000    
      Specific Conductance (µS/cm,  25°C)  = 201
                          Density (g/cm³)  =   1.00373
                               Volume (L)  =   1.02409
                        Viscosity (mPa s)  =   0.93304
                        Activity of water  =   0.989
                 Ionic strength (mol/kgw)  =   5.507e-04
                       Mass of water (kg)  =   1.000e+00
                 Total alkalinity (eq/kg)  =  -2.296e-13
                       Total CO2 (mol/kg)  =   6.338e-01
                         Temperature (°C)  =  25.00
                           Pressure (atm)  = 21.10
                  Electrical balance (eq)  =   2.296e-13
 Percent error, 100*(Cat-|An|)/(Cat+|An|)  =   0.00
                               Iterations  =   9
                         Gamma iterations  =   3
                      Osmotic coefficient  =   0.99151
                         Density of water  =   0.99795
                                  Total H  = 1.110135e+02
                                  Total O  = 5.677441e+01

----------------------------Distribution of species----------------------------

                                                    MacInnes  MacInnes
                                MacInnes       Log       Log       Log    mole V
   Species          Molality    Activity  Molality  Activity     Gamma   cm³/mol

   H+              5.507e-04   5.328e-04    -3.259    -3.273    -0.014      0.00
   OH-             1.953e-11   1.913e-11   -10.709   -10.718    -0.009     -4.04
   H2O             5.551e+01   9.887e-01     1.744    -0.005     0.000     18.05
C(4)          6.338e-01
   CO2             6.333e-01   6.226e-01    -0.198    -0.206    -0.007     34.77
   HCO3-           5.507e-04   5.392e-04    -3.259    -3.268    -0.009     23.44
   CO3-2           5.236e-11   4.743e-11   -10.281   -10.324    -0.043     -4.74

------------------------------Saturation indices-------------------------------

  Phase               SI** log IAP   log K(298 K,  21 atm)

  CO2(g)            1.27     -0.21   -1.48  CO2	 Pressure  21.1 atm, phi 0.886
  H2O(g)           -1.50     -0.00    1.50  H2O

**For a gas, SI = log10(fugacity). Fugacity = pressure * phi / 1 atm.
  For ideal gases, phi = 1.

------------------
End of simulation.
------------------

------------------------------------
Reading input data for simulation 4.
------------------------------------

		SOLUTION 1
	 temp 25
	 pH 3 charge
	C(4) 1 CO2(g)   1.6138e+00
	pressure   4.1100e+01
	END
-------------------------------------------
Beginning of initial solution calculations.
-------------------------------------------

Initial solution 1.	

-----------------------------Solution composition------------------------------

	Elements           Molality       Moles

	C(4)              1.073e+00   1.073e+00  Equilibrium with CO2(g)

----------------------------Description of solution----------------------------

                                       pH  =   3.160      Charge balance
                                       pe  =   4.000    
      Specific Conductance (µS/cm,  25°C)  = 253
                          Density (g/cm³)  =   1.00847
                               Volume (L)  =   1.03842
                        Viscosity (mPa s)  =   0.96273
                        Activity of water  =   0.981
                 Ionic strength (mol/kgw)  =   7.207e-04
                       Mass of water (kg)  =   1.000e+00
                 Total alkalinity (eq/kg)  =  -1.745e-16
                       Total CO2 (mol/kg)  =   1.073e+00
                         Temperature (°C)  =  25.00
                           Pressure (atm)  = 41.10
                  Electrical balance (eq)  =   1.745e-16
 Percent error, 100*(Cat-|An|)/(Cat+|An|)  =   0.00
                               Iterations  =  10
                         Gamma iterations  =   3
                      Osmotic coefficient  =   0.98564
                         Density of water  =   0.99885
                                  Total H  = 1.110139e+02
                                  Total O  = 5.765203e+01

----------------------------Distribution of species----------------------------

                                                    MacInnes  MacInnes
                                MacInnes       Log       Log       Log    mole V
   Species          Molality    Activity  Molality  Activity     Gamma   cm³/mol

   H+              7.207e-04   6.916e-04    -3.142    -3.160    -0.018      0.00
   OH-             1.519e-11   1.489e-11   -10.818   -10.827    -0.009     -3.96
   H2O             5.551e+01   9.811e-01     1.744    -0.008     0.000     18.04
C(4)          1.073e+00
   CO2             1.072e+00   1.041e+00     0.030     0.018    -0.012     34.75
   HCO3-           7.207e-04   7.061e-04    -3.142    -3.151    -0.009     23.56
   CO3-2           5.442e-11   4.895e-11   -10.264   -10.310    -0.046     -4.54

------------------------------Saturation indices-------------------------------

  Phase               SI** log IAP   log K(298 K,  41 atm)

  CO2(g)            1.51      0.02   -1.49  CO2	 Pressure  41.1 atm, phi 0.783
  H2O(g)           -1.50     -0.01    1.49  H2O

**For a gas, SI = log10(fugacity). Fugacity = pressure * phi / 1 atm.
  For ideal gases, phi = 1.

------------------
End of simulation.
------------------

------------------------------------
Reading input data for simulation 5.
------------------------------------

		SOLUTION 1
	 temp 25
	 pH 3 charge
	C(4) 1 CO2(g)   1.7860e+00
	pressure   6.1100e+01
	END
-------------------------------------------
Beginning of initial solution calculations.
-------------------------------------------

Initial solution 1.	

-----------------------------Solution composition------------------------------

	Elements           Molality       Moles

	C(4)              1.356e+00   1.356e+00  Equilibrium with CO2(g)

----------------------------Description of solution----------------------------

                                       pH  =   3.108      Charge balance
                                       pe  =   4.000    
      Specific Conductance (µS/cm,  25°C)  = 279
                          Density (g/cm³)  =   1.01179
                               Volume (L)  =   1.04734
                        Viscosity (mPa s)  =   0.98185
                        Activity of water  =   0.976
                 Ionic strength (mol/kgw)  =   8.164e-04
                       Mass of water (kg)  =   1.000e+00
                 Total alkalinity (eq/kg)  =  -3.982e-16
                       Total CO2 (mol/kg)  =   1.356e+00
                         Temperature (°C)  =  25.00
                           Pressure (atm)  = 61.10
                  Electrical balance (eq)  =   3.982e-16
 Percent error, 100*(Cat-|An|)/(Cat+|An|)  =   0.00
                               Iterations  =   9
                         Gamma iterations  =   3
                      Osmotic coefficient  =   0.98185
                         Density of water  =   0.99974
                                  Total H  = 1.110141e+02
                                  Total O  = 5.821898e+01

----------------------------Distribution of species----------------------------

                                                    MacInnes  MacInnes
                                MacInnes       Log       Log       Log    mole V
   Species          Molality    Activity  Molality  Activity     Gamma   cm³/mol

   H+              8.164e-04   7.798e-04    -3.088    -3.108    -0.020      0.00
   OH-             1.364e-11   1.337e-11   -10.865   -10.874    -0.009     -3.89
   H2O             5.551e+01   9.763e-01     1.744    -0.010     0.000     18.02
C(4)          1.356e+00
   CO2             1.355e+00   1.307e+00     0.132     0.116    -0.016     34.73
   HCO3-           8.164e-04   8.006e-04    -3.088    -3.097    -0.009     23.65
   CO3-2           5.612e-11   5.035e-11   -10.251   -10.298    -0.047     -4.35

------------------------------Saturation indices-------------------------------

  Phase               SI** log IAP   log K(298 K,  61 atm)

  CO2(g)            1.62      0.12   -1.50  CO2	 Pressure  61.1 atm, phi 0.680
  H2O(g)           -1.49     -0.01    1.48  H2O

**For a gas, SI = log10(fugacity). Fugacity = pressure * phi / 1 atm.
  For ideal gases, phi = 1.

------------------
End of simulation.
------------------

------------------------------------
Reading input data for simulation 6.
------------------------------------

		SOLUTION 1
	 temp 25
	 pH 3 charge
	C(4) 1 CO2(g)   1.9090e+00
	pressure   8.1100e+01
	END
-------------------------------------------
Beginning of initial solution calculations.
-------------------------------------------

Initial solution 1.	

-----------------------------Solution composition------------------------------

	Elements           Molality       Moles

	C(4)              1.409e+00   1.409e+00  Equilibrium with CO2(g)

----------------------------Description of solution----------------------------

                                       pH  =   3.095      Charge balance
                                       pe  =   4.000    
      Specific Conductance (µS/cm,  25°C)  = 287
                          Density (g/cm³)  =   1.01314
                               Volume (L)  =   1.04826
                        Viscosity (mPa s)  =   0.98526
                        Activity of water  =   0.975
                 Ionic strength (mol/kgw)  =   8.414e-04
                       Mass of water (kg)  =   1.000e+00
                 Total alkalinity (eq/kg)  =  -4.616e-16
                       Total CO2 (mol/kg)  =   1.409e+00
                         Temperature (°C)  =  25.00
                           Pressure (atm)  = 81.10
                  Electrical balance (eq)  =   4.616e-16
 Percent error, 100*(Cat-|An|)/(Cat+|An|)  =   0.00
                               Iterations  =   9
                         Gamma iterations  =   3
                      Osmotic coefficient  =   0.98114
                         Density of water  =   1.00064
                                  Total H  = 1.110141e+02
                                  Total O  = 5.832524e+01

----------------------------Distribution of species----------------------------

                                                    MacInnes  MacInnes
                                MacInnes       Log       Log       Log    mole V
   Species          Molality    Activity  Molality  Activity     Gamma   cm³/mol

   H+              8.414e-04   8.030e-04    -3.075    -3.095    -0.020      0.00
   OH-             1.347e-11   1.321e-11   -10.871   -10.879    -0.008     -3.82
   H2O             5.551e+01   9.754e-01     1.744    -0.011     0.000     18.00
C(4)          1.409e+00
   CO2             1.408e+00   1.356e+00     0.149     0.132    -0.016     34.71
   HCO3-           8.414e-04   8.252e-04    -3.075    -3.083    -0.008     23.71
   CO3-2           5.750e-11   5.155e-11   -10.240   -10.288    -0.047     -4.17

------------------------------Saturation indices-------------------------------

  Phase               SI** log IAP   log K(298 K,  81 atm)

  CO2(g)            1.65      0.13   -1.51  CO2	 Pressure  81.1 atm, phi 0.547
  H2O(g)           -1.49     -0.01    1.48  H2O

**For a gas, SI = log10(fugacity). Fugacity = pressure * phi / 1 atm.
  For ideal gases, phi = 1.

------------------
End of simulation.
------------------

------------------------------------
Reading input data for simulation 7.
------------------------------------

		SOLUTION 1
	 temp 25
	 pH 3 charge
	C(4) 1 CO2(g)   2.0048e+00
	pressure   1.0110e+02
	END
-------------------------------------------
Beginning of initial solution calculations.
-------------------------------------------

Initial solution 1.	

-----------------------------Solution composition------------------------------

	Elements           Molality       Moles

	C(4)              1.437e+00   1.437e+00  Equilibrium with CO2(g)

----------------------------Description of solution----------------------------

                                       pH  =   3.086      Charge balance
                                       pe  =   4.000    
      Specific Conductance (µS/cm,  25°C)  = 293
                          Density (g/cm³)  =   1.01427
                               Volume (L)  =   1.04832
                        Viscosity (mPa s)  =   0.98699
                        Activity of water  =   0.975
                 Ionic strength (mol/kgw)  =   8.595e-04
                       Mass of water (kg)  =   1.000e+00
                 Total alkalinity (eq/kg)  =  -5.055e-16
                       Total CO2 (mol/kg)  =   1.437e+00
                         Temperature (°C)  =  25.00
                           Pressure (atm)  = 101.10
                  Electrical balance (eq)  =   5.055e-16
 Percent error, 100*(Cat-|An|)/(Cat+|An|)  =   0.00
                               Iterations  =   9
                         Gamma iterations  =   3
                      Osmotic coefficient  =   0.98076
                         Density of water  =   1.00153
                                  Total H  = 1.110142e+02
                                  Total O  = 5.838184e+01

----------------------------Distribution of species----------------------------

                                                    MacInnes  MacInnes
                                MacInnes       Log       Log       Log    mole V
   Species          Molality    Activity  Molality  Activity     Gamma   cm³/mol

   H+              8.595e-04   8.197e-04    -3.066    -3.086    -0.021      0.00
   OH-             1.342e-11   1.316e-11   -10.872   -10.881    -0.008     -3.75
   H2O             5.551e+01   9.749e-01     1.744    -0.011     0.000     17.99
C(4)          1.437e+00
   CO2             1.437e+00   1.382e+00     0.157     0.141    -0.017     34.69
   HCO3-           8.595e-04   8.429e-04    -3.066    -3.074    -0.008     23.77
   CO3-2           5.887e-11   5.274e-11   -10.230   -10.278    -0.048     -3.98

------------------------------Saturation indices-------------------------------

  Phase               SI** log IAP   log K(298 K, 101 atm)

  CO2(g)            1.67      0.14   -1.53  CO2	 Pressure 101.1 atm, phi 0.460
  H2O(g)           -1.48     -0.01    1.47  H2O

**For a gas, SI = log10(fugacity). Fugacity = pressure * phi / 1 atm.
  For ideal gases, phi = 1.

------------------
End of simulation.
------------------

------------------------------------
Reading input data for simulation 8.
------------------------------------

		SOLUTION 1
	 temp 25
	 pH 3 charge
	C(4) 1 CO2(g)   2.0831e+00
	pressure   1.2110e+02
	END
-------------------------------------------
Beginning of initial solution calculations.
-------------------------------------------

Initial solution 1.	

-----------------------------Solution composition------------------------------

	Elements           Molality       Moles

	C(4)              1.462e+00   1.462e+00  Equilibrium with CO2(g)

----------------------------Description of solution----------------------------

                                       pH  =   3.078      Charge balance
                                       pe  =   4.000    
      Specific Conductance (µS/cm,  25°C)  = 298
                          Density (g/cm³)  =   1.01536
                               Volume (L)  =   1.04825
                        Viscosity (mPa s)  =   0.98848
                        Activity of water  =   0.974
                 Ionic strength (mol/kgw)  =   8.767e-04
                       Mass of water (kg)  =   1.000e+00
                 Total alkalinity (eq/kg)  =  -7.865e-16
                       Total CO2 (mol/kg)  =   1.462e+00
                         Temperature (°C)  =  25.00
                           Pressure (atm)  = 121.10
                  Electrical balance (eq)  =   7.865e-16
 Percent error, 100*(Cat-|An|)/(Cat+|An|)  =   0.00
                               Iterations  =  11
                         Gamma iterations  =   4
                      Osmotic coefficient  =   0.98043
                         Density of water  =   1.00242
                                  Total H  = 1.110142e+02
                                  Total O  = 5.843094e+01

----------------------------Distribution of species----------------------------

                                                    MacInnes  MacInnes
                                MacInnes       Log       Log       Log    mole V
   Species          Molality    Activity  Molality  Activity     Gamma   cm³/mol

   H+              8.767e-04   8.357e-04    -3.057    -3.078    -0.021      0.00
   OH-             1.339e-11   1.313e-11   -10.873   -10.882    -0.009     -3.67
   H2O             5.551e+01   9.745e-01     1.744    -0.011     0.000     17.97
C(4)          1.462e+00
   CO2             1.461e+00   1.405e+00     0.165     0.148    -0.017     34.67
   HCO3-           8.767e-04   8.597e-04    -3.057    -3.066    -0.009     23.83
   CO3-2           6.026e-11   5.395e-11   -10.220   -10.268    -0.048     -3.81

------------------------------Saturation indices-------------------------------

  Phase               SI** log IAP   log K(298 K, 121 atm)

  CO2(g)            1.69      0.15   -1.54  CO2	 Pressure 121.1 atm, phi 0.402
  H2O(g)           -1.48     -0.01    1.46  H2O

**For a gas, SI = log10(fugacity). Fugacity = pressure * phi / 1 atm.
  For ideal gases, phi = 1.

------------------
End of simulation.
------------------

------------------------------------
Reading input data for simulation 9.
------------------------------------

		SOLUTION 1
	 temp 25
	 pH 3 charge
	C(4) 1 CO2(g)   2.1495e+00
	pressure   1.4110e+02
	END
-------------------------------------------
Beginning of initial solution calculations.
-------------------------------------------

Initial solution 1.	

-----------------------------Solution composition------------------------------

	Elements           Molality       Moles

	C(4)              1.484e+00   1.484e+00  Equilibrium with CO2(g)

----------------------------Description of solution----------------------------

                                       pH  =   3.070      Charge balance
                                       pe  =   4.000    
      Specific Conductance (µS/cm,  25°C)  = 304
                          Density (g/cm³)  =   1.01643
                               Volume (L)  =   1.04811
                        Viscosity (mPa s)  =   0.98982
                        Activity of water  =   0.974
                 Ionic strength (mol/kgw)  =   8.934e-04
                       Mass of water (kg)  =   1.000e+00
                 Total alkalinity (eq/kg)  =  -8.344e-16
                       Total CO2 (mol/kg)  =   1.484e+00
                         Temperature (°C)  =  25.00
                           Pressure (atm)  = 141.10
                  Electrical balance (eq)  =   8.344e-16
 Percent error, 100*(Cat-|An|)/(Cat+|An|)  =   0.00
                               Iterations  =  11
                         Gamma iterations  =   4
                      Osmotic coefficient  =   0.98013
                         Density of water  =   1.00331
                                  Total H  = 1.110142e+02
                                  Total O  = 5.847542e+01

----------------------------Distribution of species----------------------------

                                                    MacInnes  MacInnes
                                MacInnes       Log       Log       Log    mole V
   Species          Molality    Activity  Molality  Activity     Gamma   cm³/mol

   H+              8.934e-04   8.512e-04    -3.049    -3.070    -0.021      0.00
   OH-             1.337e-11   1.311e-11   -10.874   -10.883    -0.009     -3.61
   H2O             5.551e+01   9.741e-01     1.744    -0.011     0.000     17.96
C(4)          1.484e+00
   CO2             1.483e+00   1.425e+00     0.171     0.154    -0.017     34.65
   HCO3-           8.934e-04   8.760e-04    -3.049    -3.058    -0.009     23.89
   CO3-2           6.167e-11   5.517e-11   -10.210   -10.258    -0.048     -3.63

------------------------------Saturation indices-------------------------------

  Phase               SI** log IAP   log K(298 K, 141 atm)

  CO2(g)            1.71      0.15   -1.55  CO2	 Pressure 141.1 atm, phi 0.360
  H2O(g)           -1.47     -0.01    1.46  H2O

**For a gas, SI = log10(fugacity). Fugacity = pressure * phi / 1 atm.
  For ideal gases, phi = 1.

------------------
End of simulation.
------------------

-------------------------------------
Reading input data for simulation 10.
-------------------------------------

		SOLUTION 1
	 temp 25
	 pH 3 charge
	C(4) 1 CO2(g)   2.2071e+00
	pressure   1.6110e+02
	END
-------------------------------------------
Beginning of initial solution calculations.
-------------------------------------------

Initial solution 1.	

-----------------------------Solution composition------------------------------

	Elements           Molality       Moles

	C(4)              1.505e+00   1.505e+00  Equilibrium with CO2(g)

----------------------------Description of solution----------------------------

                                       pH  =   3.062      Charge balance
                                       pe  =   4.000    
      Specific Conductance (µS/cm,  25°C)  = 310
                          Density (g/cm³)  =   1.01749
                               Volume (L)  =   1.04791
                        Viscosity (mPa s)  =   0.99107
                        Activity of water  =   0.974
                 Ionic strength (mol/kgw)  =   9.097e-04
                       Mass of water (kg)  =   1.000e+00
                 Total alkalinity (eq/kg)  =  -8.863e-16
                       Total CO2 (mol/kg)  =   1.505e+00
                         Temperature (°C)  =  25.00
                           Pressure (atm)  = 161.10
                  Electrical balance (eq)  =   8.863e-16
 Percent error, 100*(Cat-|An|)/(Cat+|An|)  =   0.00
                               Iterations  =  11
                         Gamma iterations  =   4
                      Osmotic coefficient  =   0.97986
                         Density of water  =   1.00419
                                  Total H  = 1.110143e+02
                                  Total O  = 5.851634e+01

----------------------------Distribution of species----------------------------

                                                    MacInnes  MacInnes
                                MacInnes       Log       Log       Log    mole V
   Species          Molality    Activity  Molality  Activity     Gamma   cm³/mol

   H+              9.097e-04   8.663e-04    -3.041    -3.062    -0.021      0.00
   OH-             1.336e-11   1.309e-11   -10.874   -10.883    -0.009     -3.54
   H2O             5.551e+01   9.738e-01     1.744    -0.012     0.000     17.94
C(4)          1.505e+00
   CO2             1.504e+00   1.444e+00     0.177     0.160    -0.018     34.63
   HCO3-           9.097e-04   8.919e-04    -3.041    -3.050    -0.009     23.95
   CO3-2           6.310e-11   5.640e-11   -10.200   -10.249    -0.049     -3.46

------------------------------Saturation indices-------------------------------

  Phase               SI** log IAP   log K(298 K, 161 atm)

  CO2(g)            1.72      0.16   -1.56  CO2	 Pressure 161.1 atm, phi 0.328
  H2O(g)           -1.46     -0.01    1.45  H2O

**For a gas, SI = log10(fugacity). Fugacity = pressure * phi / 1 atm.
  For ideal gases, phi = 1.

------------------
End of simulation.
------------------

-------------------------------------
Reading input data for simulation 11.
-------------------------------------

		SOLUTION 1
	 temp 25
	 pH 3 charge
	C(4) 1 CO2(g)   2.2579e+00
	pressure   1.8110e+02
	END
-------------------------------------------
Beginning of initial solution calculations.
-------------------------------------------

Initial solution 1.	

-----------------------------Solution composition------------------------------

	Elements           Molality       Moles

	C(4)              1.524e+00   1.524e+00  Equilibrium with CO2(g)

----------------------------Description of solution----------------------------

                                       pH  =   3.055      Charge balance
                                       pe  =   4.000    
      Specific Conductance (µS/cm,  25°C)  = 315
                          Density (g/cm³)  =   1.01853
                               Volume (L)  =   1.04766
                        Viscosity (mPa s)  =   0.99222
                        Activity of water  =   0.973
                 Ionic strength (mol/kgw)  =   9.257e-04
                       Mass of water (kg)  =   1.000e+00
                 Total alkalinity (eq/kg)  =  -9.405e-16
                       Total CO2 (mol/kg)  =   1.524e+00
                         Temperature (°C)  =  25.00
                           Pressure (atm)  = 181.10
                  Electrical balance (eq)  =   9.405e-16
 Percent error, 100*(Cat-|An|)/(Cat+|An|)  =   0.00
                               Iterations  =  11
                         Gamma iterations  =   4
                      Osmotic coefficient  =   0.97961
                         Density of water  =   1.00508
                                  Total H  = 1.110143e+02
                                  Total O  = 5.855429e+01

----------------------------Distribution of species----------------------------

                                                    MacInnes  MacInnes
                                MacInnes       Log       Log       Log    mole V
   Species          Molality    Activity  Molality  Activity     Gamma   cm³/mol

   H+              9.257e-04   8.812e-04    -3.034    -3.055    -0.021      0.00
   OH-             1.335e-11   1.309e-11   -10.874   -10.883    -0.009     -3.47
   H2O             5.551e+01   9.735e-01     1.744    -0.012     0.000     17.92
C(4)          1.524e+00
   CO2             1.523e+00   1.462e+00     0.183     0.165    -0.018     34.60
   HCO3-           9.257e-04   9.075e-04    -3.034    -3.042    -0.009     24.01
   CO3-2           6.454e-11   5.765e-11   -10.190   -10.239    -0.049     -3.29

------------------------------Saturation indices-------------------------------

  Phase               SI** log IAP   log K(298 K, 181 atm)

  CO2(g)            1.74      0.16   -1.58  CO2	 Pressure 181.1 atm, phi 0.304
  H2O(g)           -1.46     -0.01    1.45  H2O

**For a gas, SI = log10(fugacity). Fugacity = pressure * phi / 1 atm.
  For ideal gases, phi = 1.

------------------
End of simulation.
------------------

-------------------------------------
Reading input data for simulation 12.
-------------------------------------

		SOLUTION 1
	 temp 25
	 pH 3 charge
	C(4) 1 CO2(g)   2.3034e+00
	pressure   2.0110e+02
	END
-------------------------------------------
Beginning of initial solution calculations.
-------------------------------------------

Initial solution 1.	

-----------------------------Solution composition------------------------------

	Elements           Molality       Moles

	C(4)              1.541e+00   1.541e+00  Equilibrium with CO2(g)

----------------------------Description of solution----------------------------

                                       pH  =   3.048      Charge balance
                                       pe  =   4.000    
      Specific Conductance (µS/cm,  25°C)  = 320
                          Density (g/cm³)  =   1.01955
                               Volume (L)  =   1.04738
                        Viscosity (mPa s)  =   0.99331
                        Activity of water  =   0.973
                 Ionic strength (mol/kgw)  =   9.416e-04
                       Mass of water (kg)  =   1.000e+00
                 Total alkalinity (eq/kg)  =  -9.849e-16
                       Total CO2 (mol/kg)  =   1.541e+00
                         Temperature (°C)  =  25.00
                           Pressure (atm)  = 201.10
                  Electrical balance (eq)  =   9.849e-16
 Percent error, 100*(Cat-|An|)/(Cat+|An|)  =   0.00
                               Iterations  =  11
                         Gamma iterations  =   4
                      Osmotic coefficient  =   0.97937
                         Density of water  =   1.00596
                                  Total H  = 1.110143e+02
                                  Total O  = 5.858994e+01

----------------------------Distribution of species----------------------------

                                                    MacInnes  MacInnes
                                MacInnes       Log       Log       Log    mole V
   Species          Molality    Activity  Molality  Activity     Gamma   cm³/mol

   H+              9.416e-04   8.958e-04    -3.026    -3.048    -0.022      0.00
   OH-             1.335e-11   1.309e-11   -10.874   -10.883    -0.009     -3.40
   H2O             5.551e+01   9.732e-01     1.744    -0.012     0.000     17.91
C(4)          1.541e+00
   CO2             1.540e+00   1.478e+00     0.188     0.170    -0.018     34.58
   HCO3-           9.416e-04   9.230e-04    -3.026    -3.035    -0.009     24.06
   CO3-2           6.601e-11   5.892e-11   -10.180   -10.230    -0.049     -3.12

------------------------------Saturation indices-------------------------------

  Phase               SI** log IAP   log K(298 K, 201 atm)

  CO2(g)            1.76      0.17   -1.59  CO2	 Pressure 201.1 atm, phi 0.285
  H2O(g)           -1.45     -0.01    1.44  H2O

**For a gas, SI = log10(fugacity). Fugacity = pressure * phi / 1 atm.
  For ideal gases, phi = 1.

------------------
End of simulation.
------------------

-------------------------------------
Reading input data for simulation 13.
-------------------------------------

		SOLUTION 1
	 temp 25
	 pH 3 charge
	C(4) 1 CO2(g)   2.3446e+00
	pressure   2.2110e+02
	END
-------------------------------------------
Beginning of initial solution calculations.
-------------------------------------------

Initial solution 1.	

-----------------------------Solution composition------------------------------

	Elements           Molality       Moles

	C(4)              1.558e+00   1.558e+00  Equilibrium with CO2(g)

----------------------------Description of solution----------------------------

                                       pH  =   3.041      Charge balance
                                       pe  =   4.000    
      Specific Conductance (µS/cm,  25°C)  = 326
                          Density (g/cm³)  =   1.02057
                               Volume (L)  =   1.04706
                        Viscosity (mPa s)  =   0.99435
                        Activity of water  =   0.973
                 Ionic strength (mol/kgw)  =   9.572e-04
                       Mass of water (kg)  =   1.000e+00
                 Total alkalinity (eq/kg)  =  -1.036e-15
                       Total CO2 (mol/kg)  =   1.558e+00
                         Temperature (°C)  =  25.00
                           Pressure (atm)  = 221.10
                  Electrical balance (eq)  =   1.036e-15
 Percent error, 100*(Cat-|An|)/(Cat+|An|)  =   0.00
                               Iterations  =  11
                         Gamma iterations  =   4
                      Osmotic coefficient  =   0.97914
                         Density of water  =   1.00683
                                  Total H  = 1.110143e+02
                                  Total O  = 5.862364e+01

----------------------------Distribution of species----------------------------

                                                    MacInnes  MacInnes
                                MacInnes       Log       Log       Log    mole V
   Species          Molality    Activity  Molality  Activity     Gamma   cm³/mol

   H+              9.572e-04   9.104e-04    -3.019    -3.041    -0.022      0.00
   OH-             1.336e-11   1.309e-11   -10.874   -10.883    -0.009     -3.34
   H2O             5.551e+01   9.729e-01     1.744    -0.012     0.000     17.89
C(4)          1.558e+00
   CO2             1.557e+00   1.494e+00     0.192     0.174    -0.018     34.56
   HCO3-           9.572e-04   9.383e-04    -3.019    -3.028    -0.009     24.12
   CO3-2           6.749e-11   6.020e-11   -10.171   -10.220    -0.050     -2.95

------------------------------Saturation indices-------------------------------

  Phase               SI** log IAP   log K(298 K, 221 atm)

  CO2(g)            1.77      0.17   -1.60  CO2	 Pressure 221.1 atm, phi 0.269
  H2O(g)           -1.44     -0.01    1.43  H2O

**For a gas, SI = log10(fugacity). Fugacity = pressure * phi / 1 atm.
  For ideal gases, phi = 1.

------------------
End of simulation.
------------------

-------------------------------------
Reading input data for simulation 14.
-------------------------------------

		SOLUTION 1
	 temp 25
	 pH 3 charge
	C(4) 1 CO2(g)   2.3822e+00
	pressure   2.4110e+02
	END
-------------------------------------------
Beginning of initial solution calculations.
-------------------------------------------

Initial solution 1.	

-----------------------------Solution composition------------------------------

	Elements           Molality       Moles

	C(4)              1.574e+00   1.574e+00  Equilibrium with CO2(g)

----------------------------Description of solution----------------------------

                                       pH  =   3.034      Charge balance
                                       pe  =   4.000    
      Specific Conductance (µS/cm,  25°C)  = 331
                          Density (g/cm³)  =   1.02157
                               Volume (L)  =   1.04672
                        Viscosity (mPa s)  =   0.99534
                        Activity of water  =   0.973
                 Ionic strength (mol/kgw)  =   9.728e-04
                       Mass of water (kg)  =   1.000e+00
                 Total alkalinity (eq/kg)  =  -1.087e-15
                       Total CO2 (mol/kg)  =   1.574e+00
                         Temperature (°C)  =  25.00
                           Pressure (atm)  = 241.10
                  Electrical balance (eq)  =   1.087e-15
 Percent error, 100*(Cat-|An|)/(Cat+|An|)  =   0.00
                               Iterations  =  11
                         Gamma iterations  =   4
                      Osmotic coefficient  =   0.97893
                         Density of water  =   1.00771
                                  Total H  = 1.110144e+02
                                  Total O  = 5.865548e+01

----------------------------Distribution of species----------------------------

                                                    MacInnes  MacInnes
                                MacInnes       Log       Log       Log    mole V
   Species          Molality    Activity  Molality  Activity     Gamma   cm³/mol

   H+              9.728e-04   9.248e-04    -3.012    -3.034    -0.022      0.00
   OH-             1.337e-11   1.310e-11   -10.874   -10.883    -0.009     -3.27
   H2O             5.551e+01   9.726e-01     1.744    -0.012     0.000     17.88
C(4)          1.574e+00
   CO2             1.573e+00   1.508e+00     0.197     0.178    -0.018     34.55
   HCO3-           9.728e-04   9.534e-04    -3.012    -3.021    -0.009     24.17
   CO3-2           6.900e-11   6.150e-11   -10.161   -10.211    -0.050     -2.79

------------------------------Saturation indices-------------------------------

  Phase               SI** log IAP   log K(298 K, 241 atm)

  CO2(g)            1.79      0.18   -1.61  CO2	 Pressure 241.1 atm, phi 0.256
  H2O(g)           -1.44     -0.01    1.43  H2O

**For a gas, SI = log10(fugacity). Fugacity = pressure * phi / 1 atm.
  For ideal gases, phi = 1.

------------------
End of simulation.
------------------

-------------------------------------
Reading input data for simulation 15.
-------------------------------------

		SOLUTION 1
	 temp 25
	 pH 3 charge
	C(4) 1 CO2(g)   2.4168e+00
	pressure   2.6110e+02
	END
-------------------------------------------
Beginning of initial solution calculations.
-------------------------------------------

Initial solution 1.	

-----------------------------Solution composition------------------------------

	Elements           Molality       Moles

	C(4)              1.589e+00   1.589e+00  Equilibrium with CO2(g)

----------------------------Description of solution----------------------------

                                       pH  =   3.027      Charge balance
                                       pe  =   4.000    
      Specific Conductance (µS/cm,  25°C)  = 337
                          Density (g/cm³)  =   1.02256
                               Volume (L)  =   1.04635
                        Viscosity (mPa s)  =   0.99630
                        Activity of water  =   0.972
                 Ionic strength (mol/kgw)  =   9.883e-04
                       Mass of water (kg)  =   1.000e+00
                 Total alkalinity (eq/kg)  =  -1.133e-15
                       Total CO2 (mol/kg)  =   1.589e+00
                         Temperature (°C)  =  25.00
                           Pressure (atm)  = 261.10
                  Electrical balance (eq)  =   1.133e-15
 Percent error, 100*(Cat-|An|)/(Cat+|An|)  =   0.00
                               Iterations  =  11
                         Gamma iterations  =   4
                      Osmotic coefficient  =   0.97873
                         Density of water  =   1.00858
                                  Total H  = 1.110144e+02
                                  Total O  = 5.868577e+01

----------------------------Distribution of species----------------------------

                                                    MacInnes  MacInnes
                                MacInnes       Log       Log       Log    mole V
   Species          Molality    Activity  Molality  Activity     Gamma   cm³/mol

   H+              9.883e-04   9.392e-04    -3.005    -3.027    -0.022      0.00
   OH-             1.338e-11   1.311e-11   -10.874   -10.882    -0.009     -3.21
   H2O             5.551e+01   9.723e-01     1.744    -0.012     0.000     17.86
C(4)          1.589e+00
   CO2             1.588e+00   1.522e+00     0.201     0.182    -0.018     34.53
   HCO3-           9.883e-04   9.685e-04    -3.005    -3.014    -0.009     24.22
   CO3-2           7.053e-11   6.281e-11   -10.152   -10.202    -0.050     -2.62

------------------------------Saturation indices-------------------------------

  Phase               SI** log IAP   log K(298 K, 261 atm)

  CO2(g)            1.81      0.18   -1.62  CO2	 Pressure 261.1 atm, phi 0.246
  H2O(g)           -1.43     -0.01    1.42  H2O

**For a gas, SI = log10(fugacity). Fugacity = pressure * phi / 1 atm.
  For ideal gases, phi = 1.

------------------
End of simulation.
------------------

-------------------------------------
Reading input data for simulation 16.
-------------------------------------

		SOLUTION 1
	 temp 25
	 pH 3 charge
	C(4) 1 CO2(g)   2.4489e+00
	pressure   2.8110e+02
	END
-------------------------------------------
Beginning of initial solution calculations.
-------------------------------------------

Initial solution 1.	

-----------------------------Solution composition------------------------------

	Elements           Molality       Moles

	C(4)              1.604e+00   1.604e+00  Equilibrium with CO2(g)

----------------------------Description of solution----------------------------

                                       pH  =   3.021      Charge balance
                                       pe  =   4.000    
      Specific Conductance (µS/cm,  25°C)  = 342
                          Density (g/cm³)  =   1.02355
                               Volume (L)  =   1.04597
                        Viscosity (mPa s)  =   0.99723
                        Activity of water  =   0.972
                 Ionic strength (mol/kgw)  =   1.004e-03
                       Mass of water (kg)  =   1.000e+00
                 Total alkalinity (eq/kg)  =  -1.179e-15
                       Total CO2 (mol/kg)  =   1.604e+00
                         Temperature (°C)  =  25.00
                           Pressure (atm)  = 281.10
                  Electrical balance (eq)  =   1.179e-15
 Percent error, 100*(Cat-|An|)/(Cat+|An|)  =   0.00
                               Iterations  =  11
                         Gamma iterations  =   4
                      Osmotic coefficient  =   0.97853
                         Density of water  =   1.00945
                                  Total H  = 1.110144e+02
                                  Total O  = 5.871490e+01

----------------------------Distribution of species----------------------------

                                                    MacInnes  MacInnes
                                MacInnes       Log       Log       Log    mole V
   Species          Molality    Activity  Molality  Activity     Gamma   cm³/mol

   H+              1.004e-03   9.535e-04    -2.998    -3.021    -0.022      0.00
   OH-             1.339e-11   1.312e-11   -10.873   -10.882    -0.009     -3.14
   H2O             5.551e+01   9.721e-01     1.744    -0.012     0.000     17.85
C(4)          1.604e+00
   CO2             1.603e+00   1.535e+00     0.205     0.186    -0.019     34.51
   HCO3-           1.004e-03   9.835e-04    -2.998    -3.007    -0.009     24.28
   CO3-2           7.207e-11   6.415e-11   -10.142   -10.193    -0.051     -2.46

------------------------------Saturation indices-------------------------------

  Phase               SI** log IAP   log K(298 K, 281 atm)

  CO2(g)            1.82      0.19   -1.64  CO2	 Pressure 281.1 atm, phi 0.237
  H2O(g)           -1.43     -0.01    1.41  H2O

**For a gas, SI = log10(fugacity). Fugacity = pressure * phi / 1 atm.
  For ideal gases, phi = 1.

------------------
End of simulation.
------------------

-------------------------------------
Reading input data for simulation 17.
-------------------------------------

		SOLUTION 1
	 temp 25
	 pH 3 charge
	C(4) 1 CO2(g)   2.4787e+00
	pressure   3.0110e+02
	END
-------------------------------------------
Beginning of initial solution calculations.
-------------------------------------------

Initial solution 1.	

-----------------------------Solution composition------------------------------

	Elements           Molality       Moles

	C(4)              1.618e+00   1.618e+00  Equilibrium with CO2(g)

----------------------------Description of solution----------------------------

                                       pH  =   3.014      Charge balance
                                       pe  =   4.000    
      Specific Conductance (µS/cm,  25°C)  = 347
                          Density (g/cm³)  =   1.02452
                               Volume (L)  =   1.04557
                        Viscosity (mPa s)  =   0.99812
                        Activity of water  =   0.972
                 Ionic strength (mol/kgw)  =   1.019e-03
                       Mass of water (kg)  =   1.000e+00
                 Total alkalinity (eq/kg)  =  -1.229e-15
                       Total CO2 (mol/kg)  =   1.618e+00
                         Temperature (°C)  =  25.00
                           Pressure (atm)  = 301.10
                  Electrical balance (eq)  =   1.229e-15
 Percent error, 100*(Cat-|An|)/(Cat+|An|)  =   0.00
                               Iterations  =  11
                         Gamma iterations  =   4
                      Osmotic coefficient  =   0.97835
                         Density of water  =   1.01031
                                  Total H  = 1.110145e+02
                                  Total O  = 5.874240e+01

----------------------------Distribution of species----------------------------

                                                    MacInnes  MacInnes
                                MacInnes       Log       Log       Log    mole V
   Species          Molality    Activity  Molality  Activity     Gamma   cm³/mol

   H+              1.019e-03   9.677e-04    -2.992    -3.014    -0.022      0.00
   OH-             1.341e-11   1.314e-11   -10.873   -10.881    -0.009     -3.08
   H2O             5.551e+01   9.719e-01     1.744    -0.012     0.000     17.83
C(4)          1.618e+00
   CO2             1.617e+00   1.548e+00     0.209     0.190    -0.019     34.49
   HCO3-           1.019e-03   9.984e-04    -2.992    -3.001    -0.009     24.33
   CO3-2           7.364e-11   6.550e-11   -10.133   -10.184    -0.051     -2.31

------------------------------Saturation indices-------------------------------

  Phase               SI** log IAP   log K(298 K, 301 atm)

  CO2(g)            1.84      0.19   -1.65  CO2	 Pressure 301.1 atm, phi 0.229
  H2O(g)           -1.42     -0.01    1.41  H2O

**For a gas, SI = log10(fugacity). Fugacity = pressure * phi / 1 atm.
  For ideal gases, phi = 1.

------------------
End of simulation.
------------------

-------------------------------------
Reading input data for simulation 18.
-------------------------------------

		SOLUTION 1
	 temp 25
	 pH 3 charge
	C(4) 1 CO2(g)   2.5066e+00
	pressure   3.2110e+02
	END
-------------------------------------------
Beginning of initial solution calculations.
-------------------------------------------

Initial solution 1.	

-----------------------------Solution composition------------------------------

	Elements           Molality       Moles

	C(4)              1.631e+00   1.631e+00  Equilibrium with CO2(g)

----------------------------Description of solution----------------------------

                                       pH  =   3.008      Charge balance
                                       pe  =   4.000    
      Specific Conductance (µS/cm,  25°C)  = 353
                          Density (g/cm³)  =   1.02549
                               Volume (L)  =   1.04515
                        Viscosity (mPa s)  =   0.99899
                        Activity of water  =   0.972
                 Ionic strength (mol/kgw)  =   1.034e-03
                       Mass of water (kg)  =   1.000e+00
                 Total alkalinity (eq/kg)  =  -1.282e-15
                       Total CO2 (mol/kg)  =   1.631e+00
                         Temperature (°C)  =  25.00
                           Pressure (atm)  = 321.10
                  Electrical balance (eq)  =   1.282e-15
 Percent error, 100*(Cat-|An|)/(Cat+|An|)  =   0.00
                               Iterations  =  11
                         Gamma iterations  =   4
                      Osmotic coefficient  =   0.97817
                         Density of water  =   1.01117
                                  Total H  = 1.110145e+02
                                  Total O  = 5.876882e+01

----------------------------Distribution of species----------------------------

                                                    MacInnes  MacInnes
                                MacInnes       Log       Log       Log    mole V
   Species          Molality    Activity  Molality  Activity     Gamma   cm³/mol

   H+              1.034e-03   9.818e-04    -2.985    -3.008    -0.023      0.00
   OH-             1.343e-11   1.316e-11   -10.872   -10.881    -0.009     -3.02
   H2O             5.551e+01   9.717e-01     1.744    -0.012     0.000     17.82
C(4)          1.631e+00
   CO2             1.630e+00   1.560e+00     0.212     0.193    -0.019     34.47
   HCO3-           1.034e-03   1.013e-03    -2.985    -2.994    -0.009     24.38
   CO3-2           7.523e-11   6.686e-11   -10.124   -10.175    -0.051     -2.15

------------------------------Saturation indices-------------------------------

  Phase               SI** log IAP   log K(298 K, 321 atm)

  CO2(g)            1.85      0.19   -1.66  CO2	 Pressure 321.1 atm, phi 0.223
  H2O(g)           -1.41     -0.01    1.40  H2O

**For a gas, SI = log10(fugacity). Fugacity = pressure * phi / 1 atm.
  For ideal gases, phi = 1.

------------------
End of simulation.
------------------

-------------------------------------
Reading input data for simulation 19.
-------------------------------------

		SOLUTION 1
	 temp 25
	 pH 3 charge
	C(4) 1 CO2(g)   2.5329e+00
	pressure   3.4110e+02
	END
-------------------------------------------
Beginning of initial solution calculations.
-------------------------------------------

Initial solution 1.	

-----------------------------Solution composition------------------------------

	Elements           Molality       Moles

	C(4)              1.644e+00   1.644e+00  Equilibrium with CO2(g)

----------------------------Description of solution----------------------------

                                       pH  =   3.002      Charge balance
                                       pe  =   4.000    
      Specific Conductance (µS/cm,  25°C)  = 358
                          Density (g/cm³)  =   1.02645
                               Volume (L)  =   1.04472
                        Viscosity (mPa s)  =   0.99985
                        Activity of water  =   0.971
                 Ionic strength (mol/kgw)  =   1.050e-03
                       Mass of water (kg)  =   1.000e+00
                 Total alkalinity (eq/kg)  =  -1.329e-15
                       Total CO2 (mol/kg)  =   1.644e+00
                         Temperature (°C)  =  25.00
                           Pressure (atm)  = 341.10
                  Electrical balance (eq)  =   1.329e-15
 Percent error, 100*(Cat-|An|)/(Cat+|An|)  =   0.00
                               Iterations  =  11
                         Gamma iterations  =   4
                      Osmotic coefficient  =   0.97800
                         Density of water  =   1.01203
                                  Total H  = 1.110145e+02
                                  Total O  = 5.879460e+01

----------------------------Distribution of species----------------------------

                                                    MacInnes  MacInnes
                                MacInnes       Log       Log       Log    mole V
   Species          Molality    Activity  Molality  Activity     Gamma   cm³/mol

   H+              1.050e-03   9.960e-04    -2.979    -3.002    -0.023      0.00
   OH-             1.345e-11   1.317e-11   -10.871   -10.880    -0.009     -2.96
   H2O             5.551e+01   9.714e-01     1.744    -0.013     0.000     17.80
C(4)          1.644e+00
   CO2             1.643e+00   1.572e+00     0.216     0.196    -0.019     34.45
   HCO3-           1.050e-03   1.028e-03    -2.979    -2.988    -0.009     24.43
   CO3-2           7.685e-11   6.825e-11   -10.114   -10.166    -0.052     -1.99

------------------------------Saturation indices-------------------------------

  Phase               SI** log IAP   log K(298 K, 341 atm)

  CO2(g)            1.87      0.20   -1.67  CO2	 Pressure 341.1 atm, phi 0.217
  H2O(g)           -1.41     -0.01    1.40  H2O

**For a gas, SI = log10(fugacity). Fugacity = pressure * phi / 1 atm.
  For ideal gases, phi = 1.

------------------
End of simulation.
------------------

-------------------------------------
Reading input data for simulation 20.
-------------------------------------

		SOLUTION 1
	 temp 25
	 pH 3 charge
	C(4) 1 CO2(g)   2.5576e+00
	pressure   3.6110e+02
	END
-------------------------------------------
Beginning of initial solution calculations.
-------------------------------------------

Initial solution 1.	

-----------------------------Solution composition------------------------------

	Elements           Molality       Moles

	C(4)              1.656e+00   1.656e+00  Equilibrium with CO2(g)

----------------------------Description of solution----------------------------

                                       pH  =   2.996      Charge balance
                                       pe  =   4.000    
      Specific Conductance (µS/cm,  25°C)  = 364
                          Density (g/cm³)  =   1.02740
                               Volume (L)  =   1.04428
                        Viscosity (mPa s)  =   1.00068
                        Activity of water  =   0.971
                 Ionic strength (mol/kgw)  =   1.065e-03
                       Mass of water (kg)  =   1.000e+00
                 Total alkalinity (eq/kg)  =  -1.377e-15
                       Total CO2 (mol/kg)  =   1.656e+00
                         Temperature (°C)  =  25.00
                           Pressure (atm)  = 361.10
                  Electrical balance (eq)  =   1.377e-15
 Percent error, 100*(Cat-|An|)/(Cat+|An|)  =   0.00
                               Iterations  =  11
                         Gamma iterations  =   4
                      Osmotic coefficient  =   0.97784
                         Density of water  =   1.01289
                                  Total H  = 1.110146e+02
                                  Total O  = 5.881894e+01

----------------------------Distribution of species----------------------------

                                                    MacInnes  MacInnes
                                MacInnes       Log       Log       Log    mole V
   Species          Molality    Activity  Molality  Activity     Gamma   cm³/mol

   H+              1.065e-03   1.010e-03    -2.973    -2.996    -0.023      0.00
   OH-             1.347e-11   1.320e-11   -10.871   -10.880    -0.009     -2.90
   H2O             5.551e+01   9.712e-01     1.744    -0.013     0.000     17.79
C(4)          1.656e+00
   CO2             1.655e+00   1.583e+00     0.219     0.199    -0.019     34.43
   HCO3-           1.065e-03   1.043e-03    -2.973    -2.982    -0.009     24.48
   CO3-2           7.848e-11   6.965e-11   -10.105   -10.157    -0.052     -1.84

------------------------------Saturation indices-------------------------------

  Phase               SI** log IAP   log K(298 K, 361 atm)

  CO2(g)            1.88      0.20   -1.69  CO2	 Pressure 361.1 atm, phi 0.212
  H2O(g)           -1.40     -0.01    1.39  H2O

**For a gas, SI = log10(fugacity). Fugacity = pressure * phi / 1 atm.
  For ideal gases, phi = 1.

------------------
End of simulation.
------------------

-------------------------------------
Reading input data for simulation 21.
-------------------------------------

		SOLUTION 1
	 temp 25
	 pH 3 charge
	C(4) 1 CO2(g)   2.5810e+00
	pressure   3.8110e+02
	END
-------------------------------------------
Beginning of initial solution calculations.
-------------------------------------------

Initial solution 1.	

-----------------------------Solution composition------------------------------

	Elements           Molality       Moles

	C(4)              1.668e+00   1.668e+00  Equilibrium with CO2(g)

----------------------------Description of solution----------------------------

                                       pH  =   2.990      Charge balance
                                       pe  =   4.000    
      Specific Conductance (µS/cm,  25°C)  = 369
                          Density (g/cm³)  =   1.02835
                               Volume (L)  =   1.04382
                        Viscosity (mPa s)  =   1.00150
                        Activity of water  =   0.971
                 Ionic strength (mol/kgw)  =   1.080e-03
                       Mass of water (kg)  =   1.000e+00
                 Total alkalinity (eq/kg)  =  -1.421e-15
                       Total CO2 (mol/kg)  =   1.668e+00
                         Temperature (°C)  =  25.00
                           Pressure (atm)  = 381.10
                  Electrical balance (eq)  =   1.421e-15
 Percent error, 100*(Cat-|An|)/(Cat+|An|)  =   0.00
                               Iterations  =  11
                         Gamma iterations  =   4
                      Osmotic coefficient  =   0.97768
                         Density of water  =   1.01374
                                  Total H  = 1.110146e+02
                                  Total O  = 5.884253e+01

----------------------------Distribution of species----------------------------

                                                    MacInnes  MacInnes
                                MacInnes       Log       Log       Log    mole V
   Species          Molality    Activity  Molality  Activity     Gamma   cm³/mol

   H+              1.080e-03   1.024e-03    -2.967    -2.990    -0.023      0.00
   OH-             1.350e-11   1.322e-11   -10.870   -10.879    -0.009     -2.84
   H2O             5.551e+01   9.710e-01     1.744    -0.013     0.000     17.77
C(4)          1.668e+00
   CO2             1.667e+00   1.594e+00     0.222     0.202    -0.019     34.41
   HCO3-           1.080e-03   1.058e-03    -2.967    -2.976    -0.009     24.53
   CO3-2           8.013e-11   7.107e-11   -10.096   -10.148    -0.052     -1.69

------------------------------Saturation indices-------------------------------

  Phase               SI** log IAP   log K(298 K, 381 atm)

  CO2(g)            1.90      0.20   -1.70  CO2	 Pressure 381.1 atm, phi 0.208
  H2O(g)           -1.40     -0.01    1.38  H2O

**For a gas, SI = log10(fugacity). Fugacity = pressure * phi / 1 atm.
  For ideal gases, phi = 1.

------------------
End of simulation.
------------------

-------------------------------------
Reading input data for simulation 22.
-------------------------------------

		SOLUTION 1
	 temp 25
	 pH 3 charge
	C(4) 1 CO2(g)   2.6033e+00
	pressure   4.0110e+02
	END
-------------------------------------------
Beginning of initial solution calculations.
-------------------------------------------

Initial solution 1.	

-----------------------------Solution composition------------------------------

	Elements           Molality       Moles

	C(4)              1.679e+00   1.679e+00  Equilibrium with CO2(g)

----------------------------Description of solution----------------------------

                                       pH  =   2.984      Charge balance
                                       pe  =   4.000    
      Specific Conductance (µS/cm,  25°C)  = 374
                          Density (g/cm³)  =   1.02929
                               Volume (L)  =   1.04337
                        Viscosity (mPa s)  =   1.00232
                        Activity of water  =   0.971
                 Ionic strength (mol/kgw)  =   1.095e-03
                       Mass of water (kg)  =   1.000e+00
                 Total alkalinity (eq/kg)  =  -1.478e-15
                       Total CO2 (mol/kg)  =   1.679e+00
                         Temperature (°C)  =  25.00
                           Pressure (atm)  = 401.10
                  Electrical balance (eq)  =   1.478e-15
 Percent error, 100*(Cat-|An|)/(Cat+|An|)  =   0.00
                               Iterations  =  11
                         Gamma iterations  =   4
                      Osmotic coefficient  =   0.97753
                         Density of water  =   1.01459
                                  Total H  = 1.110146e+02
                                  Total O  = 5.886583e+01

----------------------------Distribution of species----------------------------

                                                    MacInnes  MacInnes
                                MacInnes       Log       Log       Log    mole V
   Species          Molality    Activity  Molality  Activity     Gamma   cm³/mol

   H+              1.095e-03   1.038e-03    -2.960    -2.984    -0.023      0.00
   OH-             1.352e-11   1.324e-11   -10.869   -10.878    -0.009     -2.78
   H2O             5.551e+01   9.708e-01     1.744    -0.013     0.000     17.76
C(4)          1.679e+00
   CO2             1.678e+00   1.604e+00     0.225     0.205    -0.020     34.39
   HCO3-           1.095e-03   1.073e-03    -2.960    -2.970    -0.009     24.58
   CO3-2           8.181e-11   7.251e-11   -10.087   -10.140    -0.052     -1.54

------------------------------Saturation indices-------------------------------

  Phase               SI** log IAP   log K(298 K, 401 atm)

  CO2(g)            1.91      0.21   -1.71  CO2	 Pressure 401.1 atm, phi 0.205
  H2O(g)           -1.39     -0.01    1.38  H2O

**For a gas, SI = log10(fugacity). Fugacity = pressure * phi / 1 atm.
  For ideal gases, phi = 1.

------------------
End of simulation.
------------------

-------------------------------------
Reading input data for simulation 23.
-------------------------------------

		SOLUTION 1
	 temp 25
	 pH 3 charge
	C(4) 1 CO2(g)   2.6244e+00
	pressure   4.2110e+02
	END
-------------------------------------------
Beginning of initial solution calculations.
-------------------------------------------

Initial solution 1.	

-----------------------------Solution composition------------------------------

	Elements           Molality       Moles

	C(4)              1.690e+00   1.690e+00  Equilibrium with CO2(g)

----------------------------Description of solution----------------------------

                                       pH  =   2.978      Charge balance
                                       pe  =   4.000    
      Specific Conductance (µS/cm,  25°C)  = 380
                          Density (g/cm³)  =   1.03022
                               Volume (L)  =   1.04289
                        Viscosity (mPa s)  =   1.00311
                        Activity of water  =   0.971
                 Ionic strength (mol/kgw)  =   1.111e-03
                       Mass of water (kg)  =   1.000e+00
                 Total alkalinity (eq/kg)  =  -1.527e-15
                       Total CO2 (mol/kg)  =   1.690e+00
                         Temperature (°C)  =  25.00
                           Pressure (atm)  = 421.10
                  Electrical balance (eq)  =   1.527e-15
 Percent error, 100*(Cat-|An|)/(Cat+|An|)  =   0.00
                               Iterations  =  11
                         Gamma iterations  =   4
                      Osmotic coefficient  =   0.97738
                         Density of water  =   1.01543
                                  Total H  = 1.110147e+02
                                  Total O  = 5.888771e+01

----------------------------Distribution of species----------------------------

                                                    MacInnes  MacInnes
                                MacInnes       Log       Log       Log    mole V
   Species          Molality    Activity  Molality  Activity     Gamma   cm³/mol

   H+              1.111e-03   1.052e-03    -2.954    -2.978    -0.023      0.00
   OH-             1.355e-11   1.326e-11   -10.868   -10.877    -0.009     -2.72
   H2O             5.551e+01   9.707e-01     1.744    -0.013     0.000     17.74
C(4)          1.690e+00
   CO2             1.689e+00   1.614e+00     0.228     0.208    -0.020     34.38
   HCO3-           1.111e-03   1.087e-03    -2.954    -2.964    -0.009     24.63
   CO3-2           8.351e-11   7.396e-11   -10.078   -10.131    -0.053     -1.40

------------------------------Saturation indices-------------------------------

  Phase               SI** log IAP   log K(298 K, 421 atm)

  CO2(g)            1.93      0.21   -1.72  CO2	 Pressure 421.1 atm, phi 0.202
  H2O(g)           -1.38     -0.01    1.37  H2O

**For a gas, SI = log10(fugacity). Fugacity = pressure * phi / 1 atm.
  For ideal gases, phi = 1.

------------------
End of simulation.
------------------

-------------------------------------
Reading input data for simulation 24.
-------------------------------------

		SOLUTION 1
	 temp 25
	 pH 3 charge
	C(4) 1 CO2(g)   2.6445e+00
	pressure   4.4110e+02
	END
-------------------------------------------
Beginning of initial solution calculations.
-------------------------------------------

Initial solution 1.	

-----------------------------Solution composition------------------------------

	Elements           Molality       Moles

	C(4)              1.701e+00   1.701e+00  Equilibrium with CO2(g)

----------------------------Description of solution----------------------------

                                       pH  =   2.972      Charge balance
                                       pe  =   4.000    
      Specific Conductance (µS/cm,  25°C)  = 385
                          Density (g/cm³)  =   1.03114
                               Volume (L)  =   1.04241
                        Viscosity (mPa s)  =   1.00389
                        Activity of water  =   0.970
                 Ionic strength (mol/kgw)  =   1.126e-03
                       Mass of water (kg)  =   1.000e+00
                 Total alkalinity (eq/kg)  =  -1.575e-15
                       Total CO2 (mol/kg)  =   1.701e+00
                         Temperature (°C)  =  25.00
                           Pressure (atm)  = 441.10
                  Electrical balance (eq)  =   1.575e-15
 Percent error, 100*(Cat-|An|)/(Cat+|An|)  =   0.00
                               Iterations  =  11
                         Gamma iterations  =   4
                      Osmotic coefficient  =   0.97724
                         Density of water  =   1.01627
                                  Total H  = 1.110147e+02
                                  Total O  = 5.890872e+01

----------------------------Distribution of species----------------------------

                                                    MacInnes  MacInnes
                                MacInnes       Log       Log       Log    mole V
   Species          Molality    Activity  Molality  Activity     Gamma   cm³/mol

   H+              1.126e-03   1.066e-03    -2.949    -2.972    -0.023      0.00
   OH-             1.358e-11   1.329e-11   -10.867   -10.876    -0.009     -2.66
   H2O             5.551e+01   9.705e-01     1.744    -0.013     0.000     17.73
C(4)          1.701e+00
   CO2             1.700e+00   1.624e+00     0.230     0.211    -0.020     34.36
   HCO3-           1.126e-03   1.102e-03    -2.949    -2.958    -0.009     24.68
   CO3-2           8.524e-11   7.543e-11   -10.069   -10.122    -0.053     -1.25

------------------------------Saturation indices-------------------------------

  Phase               SI** log IAP   log K(298 K, 441 atm)

  CO2(g)            1.94      0.21   -1.73  CO2	 Pressure 441.1 atm, phi 0.199
  H2O(g)           -1.38     -0.01    1.36  H2O

**For a gas, SI = log10(fugacity). Fugacity = pressure * phi / 1 atm.
  For ideal gases, phi = 1.

------------------
End of simulation.
------------------

-------------------------------------
Reading input data for simulation 25.
-------------------------------------

		SOLUTION 1
	 temp 25
	 pH 3 charge
	C(4) 1 CO2(g)   2.6638e+00
	pressure   4.6110e+02
	END
-------------------------------------------
Beginning of initial solution calculations.
-------------------------------------------

Initial solution 1.	

-----------------------------Solution composition------------------------------

	Elements           Molality       Moles

	C(4)              1.711e+00   1.711e+00  Equilibrium with CO2(g)

----------------------------Description of solution----------------------------

                                       pH  =   2.966      Charge balance
                                       pe  =   4.000    
      Specific Conductance (µS/cm,  25°C)  = 391
                          Density (g/cm³)  =   1.03206
                               Volume (L)  =   1.04193
                        Viscosity (mPa s)  =   1.00468
                        Activity of water  =   0.970
                 Ionic strength (mol/kgw)  =   1.141e-03
                       Mass of water (kg)  =   1.000e+00
                 Total alkalinity (eq/kg)  =  -1.622e-15
                       Total CO2 (mol/kg)  =   1.711e+00
                         Temperature (°C)  =  25.00
                           Pressure (atm)  = 461.10
                  Electrical balance (eq)  =   1.622e-15
 Percent error, 100*(Cat-|An|)/(Cat+|An|)  =   0.00
                               Iterations  =  11
                         Gamma iterations  =   4
                      Osmotic coefficient  =   0.97710
                         Density of water  =   1.01711
                                  Total H  = 1.110147e+02
                                  Total O  = 5.892961e+01

----------------------------Distribution of species----------------------------

                                                    MacInnes  MacInnes
                                MacInnes       Log       Log       Log    mole V
   Species          Molality    Activity  Molality  Activity     Gamma   cm³/mol

   H+              1.141e-03   1.081e-03    -2.943    -2.966    -0.024      0.00
   OH-             1.360e-11   1.332e-11   -10.866   -10.876    -0.009     -2.60
   H2O             5.551e+01   9.703e-01     1.744    -0.013     0.000     17.71
C(4)          1.711e+00
   CO2             1.710e+00   1.633e+00     0.233     0.213    -0.020     34.34
   HCO3-           1.141e-03   1.117e-03    -2.943    -2.952    -0.009     24.73
   CO3-2           8.698e-11   7.692e-11   -10.061   -10.114    -0.053     -1.11

------------------------------Saturation indices-------------------------------

  Phase               SI** log IAP   log K(298 K, 461 atm)

  CO2(g)            1.96      0.21   -1.75  CO2	 Pressure 461.1 atm, phi 0.197
  H2O(g)           -1.37     -0.01    1.36  H2O

**For a gas, SI = log10(fugacity). Fugacity = pressure * phi / 1 atm.
  For ideal gases, phi = 1.

------------------
End of simulation.
------------------

-------------------------------------
Reading input data for simulation 26.
-------------------------------------

		SOLUTION 1
	 temp 25
	 pH 3 charge
	C(4) 1 CO2(g)   2.6822e+00
	pressure   4.8110e+02
	END
-------------------------------------------
Beginning of initial solution calculations.
-------------------------------------------

Initial solution 1.	

-----------------------------Solution composition------------------------------

	Elements           Molality       Moles

	C(4)              1.721e+00   1.721e+00  Equilibrium with CO2(g)

----------------------------Description of solution----------------------------

                                       pH  =   2.961      Charge balance
                                       pe  =   4.000    
      Specific Conductance (µS/cm,  25°C)  = 396
                          Density (g/cm³)  =   1.03297
                               Volume (L)  =   1.04143
                        Viscosity (mPa s)  =   1.00544
                        Activity of water  =   0.970
                 Ionic strength (mol/kgw)  =   1.156e-03
                       Mass of water (kg)  =   1.000e+00
                 Total alkalinity (eq/kg)  =  -1.671e-15
                       Total CO2 (mol/kg)  =   1.721e+00
                         Temperature (°C)  =  25.00
                           Pressure (atm)  = 481.10
                  Electrical balance (eq)  =   1.671e-15
 Percent error, 100*(Cat-|An|)/(Cat+|An|)  =   0.00
                               Iterations  =  11
                         Gamma iterations  =   4
                      Osmotic coefficient  =   0.97697
                         Density of water  =   1.01794
                                  Total H  = 1.110147e+02
                                  Total O  = 5.894934e+01

----------------------------Distribution of species----------------------------

                                                    MacInnes  MacInnes
                                MacInnes       Log       Log       Log    mole V
   Species          Molality    Activity  Molality  Activity     Gamma   cm³/mol

   H+              1.156e-03   1.095e-03    -2.937    -2.961    -0.024      0.00
   OH-             1.363e-11   1.334e-11   -10.865   -10.875    -0.009     -2.55
   H2O             5.551e+01   9.701e-01     1.744    -0.013     0.000     17.70
C(4)          1.721e+00
   CO2             1.720e+00   1.642e+00     0.235     0.215    -0.020     34.32
   HCO3-           1.156e-03   1.132e-03    -2.937    -2.946    -0.009     24.77
   CO3-2           8.875e-11   7.843e-11   -10.052   -10.105    -0.054     -0.96

------------------------------Saturation indices-------------------------------

  Phase               SI** log IAP   log K(298 K, 481 atm)

  CO2(g)            1.97      0.22   -1.76  CO2	 Pressure 481.1 atm, phi 0.195
  H2O(g)           -1.37     -0.01    1.35  H2O

**For a gas, SI = log10(fugacity). Fugacity = pressure * phi / 1 atm.
  For ideal gases, phi = 1.

------------------
End of simulation.
[...]
                         Gamma iterations  =   4
                      Osmotic coefficient  =   0.79348
                         Density of water  =   0.96299
                                  Total H  = 1.110142e+02
                                  Total O  = 6.087355e+01

----------------------------Distribution of species----------------------------

                                                    MacInnes  MacInnes
                                MacInnes       Log       Log       Log    mole V
   Species          Molality    Activity  Molality  Activity     Gamma   cm³/mol

   H+              8.938e-04   8.336e-04    -3.049    -3.079    -0.030      0.00
   OH-             6.659e-09   6.552e-09    -8.177    -8.184    -0.007    -13.75
   H2O             5.551e+01   9.624e-01     1.744    -0.017     0.000     18.71
C(4)          2.683e+00
   CO2             2.682e+00   1.774e+00     0.429     0.249    -0.179     39.96
   HCO3-           8.938e-04   8.795e-04    -3.049    -3.056    -0.007     25.34
   CO3-2           1.067e-10   9.428e-11    -9.972   -10.026    -0.054     -4.31

------------------------------Saturation indices-------------------------------

  Phase               SI** log IAP   log K(423 K, 941 atm)

  CO2(g)            2.79      0.25   -2.54  CO2	 Pressure 941.0 atm, phi 0.659
  H2O(g)            0.86     -0.02   -0.88  H2O	 Pressure  10.0 atm, phi 0.015

**For a gas, SI = log10(fugacity). Fugacity = pressure * phi / 1 atm.
  For ideal gases, phi = 1.

-----------------------------------------
Beginning of batch-reaction calculations.
-----------------------------------------

Reaction step 1.

Using solution 1.	
Using pure phase assemblage 1.	
Using gas phase 1.	

-----------------------------------Gas phase-----------------------------------

Total pressure: 956.26      atmospheres          (Peng-Robinson calculation)
    Gas volume:   1.00e+00 liters
  Molar volume:   4.60e-02 liters/mole
   P * Vm / RT:  1.26674  (Compressibility Factor Z) 

                                                        Moles in gas
                                            ----------------------------------
Component         log P           P    phi     Initial       Final       Delta

CO2(g)             2.96   9.071e+02  0.665   2.718e+01   2.062e+01  -6.553e+00
H2O(g)             1.69   4.914e+01  0.150   2.950e-01   1.117e+00   8.221e-01

-------------------------------Phase assemblage--------------------------------

                                                      Moles in assemblage
Phase               SI  log IAP  log K(T, P)   Initial       Final       Delta

CO2(g)            2.78     0.23     -2.55    1.000e+01   1.678e+01   6.776e+00

-----------------------------Solution composition------------------------------

	Elements           Molality       Moles

	C                 2.497e+00   2.460e+00

----------------------------Description of solution----------------------------

                                       pH  =   3.085      Charge balance
                                       pe  =   4.000      Adjusted to redox equilibrium
      Specific Conductance (µS/cm, 150°C)  = 592
                          Density (g/cm³)  =   0.97586
                               Volume (L)  =   1.12052
                        Viscosity (mPa s)  =   0.21325
                        Activity of water  =   0.964
                 Ionic strength (mol/kgw)  =   8.800e-04
                       Mass of water (kg)  =   9.852e-01
                 Total alkalinity (eq/kg)  =  -5.590e-14
                       Total CO2 (mol/kg)  =   2.497e+00
                         Temperature (°C)  = 150.00
                           Pressure (atm)  = 956.26
                  Electrical balance (eq)  =   5.507e-14
 Percent error, 100*(Cat-|An|)/(Cat+|An|)  =   0.00
                               Iterations  =  26
                         Gamma iterations  =   3
                      Osmotic coefficient  =   0.80782
                         Density of water  =   0.96363
                                  Total H  = 1.093699e+02
                                  Total O  = 5.960501e+01

----------------------------Distribution of species----------------------------

                                                    MacInnes  MacInnes
                                MacInnes       Log       Log       Log    mole V
   Species          Molality    Activity  Molality  Activity     Gamma   cm³/mol

   H+              8.800e-04   8.226e-04    -3.056    -3.085    -0.029      0.00
   OH-             6.871e-09   6.751e-09    -8.163    -8.171    -0.008    -13.77
   H2O             5.551e+01   9.643e-01     1.744    -0.016     0.000     18.70
C(4)          2.497e+00
   CO2             2.496e+00   1.699e+00     0.397     0.230    -0.167     39.90
   HCO3-           8.800e-04   8.646e-04    -3.056    -3.063    -0.008     25.41
   CO3-2           1.076e-10   9.491e-11    -9.968   -10.023    -0.055     -4.15

------------------------------Saturation indices-------------------------------

  Phase               SI** log IAP   log K(423 K, 956 atm)

  CO2(g)            2.78      0.23   -2.55  CO2	 Pressure 907.1 atm, phi 0.665
  H2O(g)            0.87     -0.02   -0.88  H2O	 Pressure  49.1 atm, phi 0.150

**For a gas, SI = log10(fugacity). Fugacity = pressure * phi / 1 atm.
  For ideal gases, phi = 1.

------------------
End of simulation.
------------------

--------------------------------------
Reading input data for simulation 258.
--------------------------------------

		EQUILIBRIUM_PHASES 1
	 CO2(g)   2.9736e+00
		GAS_PHASE 1
	 fixed_volume
	 volume 1 
	 CO2(g)   9.4110e+02
	 H2O(g) 10
		SOLUTION 1
	 temp 150
	 pH 3 charge
	C(4) 1 CO2(g)   2.9828e+00
	pressure   9.6110e+02
	END
-------------------------------------------
Beginning of initial solution calculations.
-------------------------------------------

Initial solution 1.	

-----------------------------Solution composition------------------------------

	Elements           Molality       Moles

	C(4)              2.713e+00   2.713e+00  Equilibrium with CO2(g)

----------------------------Description of solution----------------------------

                                       pH  =   3.075      Charge balance
                                       pe  =   4.000    
      Specific Conductance (µS/cm, 150°C)  = 598
                          Density (g/cm³)  =   0.97705
                               Volume (L)  =   1.14570
                        Viscosity (mPa s)  =   0.21403
                        Activity of water  =   0.962
                 Ionic strength (mol/kgw)  =   9.031e-04
                       Mass of water (kg)  =   1.000e+00
                 Total alkalinity (eq/kg)  =  -1.566e-15
                       Total CO2 (mol/kg)  =   2.713e+00
                         Temperature (°C)  = 150.00
                           Pressure (atm)  = 961.10
                  Electrical balance (eq)  =   1.566e-15
 Percent error, 100*(Cat-|An|)/(Cat+|An|)  =   0.00
                               Iterations  =  12
                         Gamma iterations  =   4
                      Osmotic coefficient  =   0.79121
                         Density of water  =   0.96384
                                  Total H  = 1.110142e+02
                                  Total O  = 6.093257e+01

----------------------------Distribution of species----------------------------

                                                    MacInnes  MacInnes
                                MacInnes       Log       Log       Log    mole V
   Species          Molality    Activity  Molality  Activity     Gamma   cm³/mol

   H+              9.031e-04   8.419e-04    -3.044    -3.075    -0.030      0.00
   OH-             6.718e-09   6.611e-09    -8.173    -8.180    -0.007    -13.78
   H2O             5.551e+01   9.621e-01     1.744    -0.017     0.000     18.69
C(4)          2.713e+00
   CO2             2.712e+00   1.786e+00     0.433     0.252    -0.181     39.88
   HCO3-           9.031e-04   8.887e-04    -3.044    -3.051    -0.007     25.43
   CO3-2           1.082e-10   9.563e-11    -9.966   -10.019    -0.054     -4.09

------------------------------Saturation indices-------------------------------

  Phase               SI** log IAP   log K(423 K, 961 atm)

  CO2(g)            2.80      0.25   -2.55  CO2	 Pressure 961.2 atm, phi 0.663
  H2O(g)            0.87     -0.02   -0.88  H2O	 Pressure  10.0 atm, phi 0.015

**For a gas, SI = log10(fugacity). Fugacity = pressure * phi / 1 atm.
  For ideal gases, phi = 1.

-----------------------------------------
Beginning of batch-reaction calculations.
-----------------------------------------

Reaction step 1.

Using solution 1.	
Using pure phase assemblage 1.	
Using gas phase 1.	

-----------------------------------Gas phase-----------------------------------

Total pressure: 976.29      atmospheres          (Peng-Robinson calculation)
    Gas volume:   1.00e+00 liters
  Molar volume:   4.57e-02 liters/mole
   P * Vm / RT:  1.28409  (Compressibility Factor Z) 

                                                        Moles in gas
                                            ----------------------------------
Component         log P           P    phi     Initial       Final       Delta

CO2(g)             2.97   9.264e+02  0.669   2.726e+01   2.078e+01  -6.487e+00
H2O(g)             1.70   4.993e+01  0.149   2.897e-01   1.120e+00   8.300e-01

-------------------------------Phase assemblage--------------------------------

                                                      Moles in assemblage
Phase               SI  log IAP  log K(T, P)   Initial       Final       Delta

CO2(g)            2.79     0.23     -2.56    1.000e+01   1.671e+01   6.715e+00

-----------------------------Solution composition------------------------------

	Elements           Molality       Moles

	C                 2.523e+00   2.485e+00

----------------------------Description of solution----------------------------

                                       pH  =   3.081      Charge balance
                                       pe  =   4.000      Adjusted to redox equilibrium
      Specific Conductance (µS/cm, 150°C)  = 597
                          Density (g/cm³)  =   0.97691
                               Volume (L)  =   1.12030
                        Viscosity (mPa s)  =   0.21382
                        Activity of water  =   0.964
                 Ionic strength (mol/kgw)  =   8.891e-04
                       Mass of water (kg)  =   9.850e-01
                 Total alkalinity (eq/kg)  =  -5.953e-14
                       Total CO2 (mol/kg)  =   2.523e+00
                         Temperature (°C)  = 150.00
                           Pressure (atm)  = 976.29
                  Electrical balance (eq)  =   5.864e-14
 Percent error, 100*(Cat-|An|)/(Cat+|An|)  =   0.00
                               Iterations  =  26
                         Gamma iterations  =   3
                      Osmotic coefficient  =   0.80583
                         Density of water  =   0.96447
                                  Total H  = 1.093542e+02
                                  Total O  = 5.964743e+01

----------------------------Distribution of species----------------------------

                                                    MacInnes  MacInnes
                                MacInnes       Log       Log       Log    mole V
   Species          Molality    Activity  Molality  Activity     Gamma   cm³/mol

   H+              8.891e-04   8.307e-04    -3.051    -3.081    -0.029      0.00
   OH-             6.932e-09   6.812e-09    -8.159    -8.167    -0.008    -13.80
   H2O             5.551e+01   9.640e-01     1.744    -0.016     0.000     18.68
C(4)          2.523e+00
   CO2             2.522e+00   1.710e+00     0.402     0.233    -0.169     39.83
   HCO3-           8.891e-04   8.737e-04    -3.051    -3.059    -0.008     25.49
   CO3-2           1.092e-10   9.625e-11    -9.962   -10.017    -0.055     -3.94

------------------------------Saturation indices-------------------------------

  Phase               SI** log IAP   log K(423 K, 976 atm)

  CO2(g)            2.79      0.23   -2.56  CO2	 Pressure 926.4 atm, phi 0.669
  H2O(g)            0.87     -0.02   -0.89  H2O	 Pressure  49.9 atm, phi 0.149

**For a gas, SI = log10(fugacity). Fugacity = pressure * phi / 1 atm.
  For ideal gases, phi = 1.

------------------
End of simulation.
------------------

--------------------------------------
Reading input data for simulation 259.
--------------------------------------

		EQUILIBRIUM_PHASES 1
	 CO2(g)   2.9828e+00
		GAS_PHASE 1
	 fixed_volume
	 volume 1 
	 CO2(g)   9.6110e+02
	 H2O(g) 10
		SOLUTION 1
	 temp 150
	 pH 3 charge
	C(4) 1 CO2(g)   2.9917e+00
	pressure   9.8110e+02
	END
-------------------------------------------
Beginning of initial solution calculations.
-------------------------------------------

Initial solution 1.	

-----------------------------Solution composition------------------------------

	Elements           Molality       Moles

	C(4)              2.741e+00   2.741e+00  Equilibrium with CO2(g)

----------------------------Description of solution----------------------------

                                       pH  =   3.071      Charge balance
                                       pe  =   4.000    
      Specific Conductance (µS/cm, 150°C)  = 602
                          Density (g/cm³)  =   0.97811
                               Volume (L)  =   1.14571
                        Viscosity (mPa s)  =   0.21462
                        Activity of water  =   0.962
                 Ionic strength (mol/kgw)  =   9.122e-04
                       Mass of water (kg)  =   1.000e+00
                 Total alkalinity (eq/kg)  =  -1.702e-15
                       Total CO2 (mol/kg)  =   2.741e+00
                         Temperature (°C)  = 150.00
                           Pressure (atm)  = 981.10
                  Electrical balance (eq)  =   1.702e-15
 Percent error, 100*(Cat-|An|)/(Cat+|An|)  =   0.00
                               Iterations  =  12
                         Gamma iterations  =   4
                      Osmotic coefficient  =   0.78907
                         Density of water  =   0.96468
                                  Total H  = 1.110143e+02
                                  Total O  = 6.098814e+01

----------------------------Distribution of species----------------------------

                                                    MacInnes  MacInnes
                                MacInnes       Log       Log       Log    mole V
   Species          Molality    Activity  Molality  Activity     Gamma   cm³/mol

   H+              9.122e-04   8.500e-04    -3.040    -3.071    -0.031      0.00
   OH-             6.779e-09   6.672e-09    -8.169    -8.176    -0.007    -13.81
   H2O             5.551e+01   9.618e-01     1.744    -0.017     0.000     18.68
C(4)          2.741e+00
   CO2             2.740e+00   1.796e+00     0.438     0.254    -0.183     39.81
   HCO3-           9.122e-04   8.978e-04    -3.040    -3.047    -0.007     25.51
   CO3-2           1.098e-10   9.698e-11    -9.960   -10.013    -0.054     -3.88

------------------------------Saturation indices-------------------------------

  Phase               SI** log IAP   log K(423 K, 981 atm)

  CO2(g)            2.82      0.25   -2.56  CO2	 Pressure 981.1 atm, phi 0.667
  H2O(g)            0.87     -0.02   -0.89  H2O	 Pressure  10.0 atm, phi 0.015

**For a gas, SI = log10(fugacity). Fugacity = pressure * phi / 1 atm.
  For ideal gases, phi = 1.

-----------------------------------------
Beginning of batch-reaction calculations.
-----------------------------------------

Reaction step 1.

Using solution 1.	
Using pure phase assemblage 1.	
Using gas phase 1.	

-----------------------------------Gas phase-----------------------------------

Total pressure: 996.52      atmospheres          (Peng-Robinson calculation)
    Gas volume:   1.00e+00 liters
  Molar volume:   4.54e-02 liters/mole
   P * Vm / RT:  1.30161  (Compressibility Factor Z) 

                                                        Moles in gas
                                            ----------------------------------
Component         log P           P    phi     Initial       Final       Delta

CO2(g)             2.98   9.458e+02  0.674   2.735e+01   2.093e+01  -6.421e+00
H2O(g)             1.71   5.071e+01  0.148   2.845e-01   1.122e+00   8.374e-01

-------------------------------Phase assemblage--------------------------------

                                                      Moles in assemblage
Phase               SI  log IAP  log K(T, P)   Initial       Final       Delta

CO2(g)            2.80     0.24     -2.57    1.000e+01   1.665e+01   6.651e+00

-----------------------------Solution composition------------------------------

	Elements           Molality       Moles

	C                 2.549e+00   2.510e+00

----------------------------Description of solution----------------------------

                                       pH  =   3.076      Charge balance
                                       pe  =   4.000      Adjusted to redox equilibrium
      Specific Conductance (µS/cm, 150°C)  = 602
                          Density (g/cm³)  =   0.97797
                               Volume (L)  =   1.12009
                        Viscosity (mPa s)  =   0.21440
                        Activity of water  =   0.964
                 Ionic strength (mol/kgw)  =   8.983e-04
                       Mass of water (kg)  =   9.849e-01
                 Total alkalinity (eq/kg)  =  -6.192e-14
                       Total CO2 (mol/kg)  =   2.549e+00
                         Temperature (°C)  = 150.00
                           Pressure (atm)  = 996.52
                  Electrical balance (eq)  =   6.098e-14
 Percent error, 100*(Cat-|An|)/(Cat+|An|)  =   0.00
                               Iterations  =  26
                         Gamma iterations  =   3
                      Osmotic coefficient  =   0.80383
                         Density of water  =   0.96532
                                  Total H  = 1.093394e+02
                                  Total O  = 5.969057e+01

----------------------------Distribution of species----------------------------

                                                    MacInnes  MacInnes
                                MacInnes       Log       Log       Log    mole V
   Species          Molality    Activity  Molality  Activity     Gamma   cm³/mol

   H+              8.983e-04   8.390e-04    -3.047    -3.076    -0.030      0.00
   OH-             6.996e-09   6.875e-09    -8.155    -8.163    -0.008    -13.84
   H2O             5.551e+01   9.637e-01     1.744    -0.016     0.000     18.66
C(4)          2.549e+00
   CO2             2.548e+00   1.721e+00     0.406     0.236    -0.171     39.76
   HCO3-           8.983e-04   8.828e-04    -3.047    -3.054    -0.008     25.58
   CO3-2           1.107e-10   9.761e-11    -9.956   -10.010    -0.055     -3.72

------------------------------Saturation indices-------------------------------

  Phase               SI** log IAP   log K(423 K, 997 atm)

  CO2(g)            2.80      0.24   -2.57  CO2	 Pressure 945.8 atm, phi 0.674
  H2O(g)            0.88     -0.02   -0.89  H2O	 Pressure  50.7 atm, phi 0.148

**For a gas, SI = log10(fugacity). Fugacity = pressure * phi / 1 atm.
  For ideal gases, phi = 1.

------------------
End of simulation.
------------------

--------------------------------------
Reading input data for simulation 260.
--------------------------------------

		EQUILIBRIUM_PHASES 1
	 CO2(g)   2.9917e+00
		GAS_PHASE 1
	 fixed_volume
	 volume 1 
	 CO2(g)   9.8110e+02
	 H2O(g) 10
	END
------------------
End of simulation.
------------------

--------------------------------------
Reading input data for simulation 261.
--------------------------------------

