WARNING: Database file from DATABASE keyword is used; command line argument ignored.
   Input file: CO2_conc_PR_GP1
  Output file: CO2_conc_PR_GP1.out
Database file: ../database/pitzer.dat

------------------
Reading data base.
------------------

WARNING: Unknown input, no keyword has been specified.
	SOLUTION_MASTER_SPECIES
	SOLUTION_SPECIES
	PHASES
	PITZER
	GAS_BINARY_PARAMETERS
	EXCHANGE_MASTER_SPECIES
	EXCHANGE_SPECIES
	SURFACE_MASTER_SPECIES
	SURFACE_SPECIES
	MEAN_GAMMAS
	END
------------------------------------
Reading input data for simulation 1.
------------------------------------

	DATABASE ../database/pitzer.dat
	SELECTED_OUTPUT 101
	    file                 CO2_conc_PR_GP1_101.sel
	USER_PUNCH 101
	    headings Mu SC
	    start
	10 PUNCH STR_F$(MU, 20, 12)
	20 PUNCH STR_F$(SC, 20, 10)
	    end
	SOLUTION 1 pH 7 charge
	GAS_PHASE 6
	    fixed_volume
	    CO2(g) 0
		H2O(g) 0
	USER_GRAPH
	 -chart_title "Using: GAS_PHASE with H2O(g)"
	 -plot_csv_file co2.dat
	 -axis_titles "Pressure / atm" "CO2 / (mol/kgw)"
	 -axis_scale x_axis 0 500
	 -axis_scale y_axis 0 2
	 -init true
	 10 x = PR_P("CO2(g)")
	 20 graph_x x
	 30 graph_y tot("C(4)")
	 -end
	INCREMENTAL_REACTIONS true
	REACTION
	 CO2 1
	 27 in 26
	END
-------------------------------------------
Beginning of initial solution calculations.
-------------------------------------------

Initial solution 1.	pH 7 charge

-----------------------------Solution composition------------------------------

	Elements           Molality       Moles

	Pure water     

----------------------------Description of solution----------------------------

                                       pH  =   7.000    
                                       pe  =   4.000    
      Specific Conductance (µS/cm,  25°C)  = 0
                          Density (g/cm³)  =   0.99704
                               Volume (L)  =   1.00297
                        Viscosity (mPa s)  =   0.89002
                        Activity of water  =   1.000
                 Ionic strength (mol/kgw)  =   1.006e-07
                       Mass of water (kg)  =   1.000e+00
                 Total alkalinity (eq/kg)  =   1.216e-09
                         Temperature (°C)  =  25.00
                  Electrical balance (eq)  =  -1.216e-09
 Percent error, 100*(Cat-|An|)/(Cat+|An|)  =  -0.60
                               Iterations  =   3
                         Gamma iterations  =   2
                      Osmotic coefficient  =   0.99988
                         Density of water  =   0.99704
                                  Total H  = 1.110124e+02
                                  Total O  = 5.550622e+01

----------------------------Distribution of species----------------------------

                                                    MacInnes  MacInnes
                                MacInnes       Log       Log       Log    mole V
   Species          Molality    Activity  Molality  Activity     Gamma   cm³/mol

   OH-             1.013e-07   1.012e-07    -6.995    -6.995    -0.000     -4.14
   H+              1.000e-07   1.000e-07    -7.000    -7.000    -0.000      0.00
   H2O             5.551e+01   1.000e+00     1.744    -0.000     0.000     18.07

------------------------------Saturation indices-------------------------------

  Phase               SI** log IAP   log K(298 K,   1 atm)

  H2O(g)           -1.50     -0.00    1.50  H2O

**For a gas, SI = log10(fugacity). Fugacity = pressure * phi / 1 atm.
  For ideal gases, phi = 1.

-----------------------------------------
Beginning of batch-reaction calculations.
-----------------------------------------

Reaction step 1.

Using solution 1.	pH 7 charge
Using gas phase 6.	
Using reaction 1.	

Reaction 1.	

	  1.038e+00 moles of the following reaction have been added:

	                 Relative
	Reactant            moles

	CO2                  1.00000

	                 Relative
	Element             moles
	C                    1.00000
	O                    2.00000

-----------------------------------Gas phase-----------------------------------

Total pressure: 13.71      atmospheres          (Peng-Robinson calculation)
    Gas volume:   1.00e+00 liters
  Molar volume:   1.64e+00 liters/mole
   P * Vm / RT:  0.92067  (Compressibility Factor Z) 

                                                        Moles in gas
                                            ----------------------------------
Component         log P           P    phi     Initial       Final       Delta

CO2(g)             1.14   1.368e+01  0.925   0.000e+00   6.072e-01   6.072e-01
H2O(g)            -1.44   3.603e-02  0.874   0.000e+00   1.599e-03   1.599e-03

-----------------------------Solution composition------------------------------

	Elements           Molality       Moles

	C                 4.312e-01   4.312e-01

----------------------------Description of solution----------------------------

                                       pH  =   3.356      Charge balance
                                       pe  =   4.000      Adjusted to redox equilibrium
      Specific Conductance (µS/cm,  25°C)  = 168
                          Density (g/cm³)  =   1.00158
                               Volume (L)  =   1.01735
                        Viscosity (mPa s)  =   0.91933
                        Activity of water  =   0.992
                 Ionic strength (mol/kgw)  =   4.531e-04
                       Mass of water (kg)  =   1.000e+00
                 Total alkalinity (eq/kg)  =   1.216e-09
                       Total CO2 (mol/kg)  =   4.312e-01
                         Temperature (°C)  =  25.00
                           Pressure (atm)  = 13.71
                  Electrical balance (eq)  =  -1.216e-09
 Percent error, 100*(Cat-|An|)/(Cat+|An|)  =  -0.00
                               Iterations  =  31
                         Gamma iterations  =   3
                      Osmotic coefficient  =   0.99422
                         Density of water  =   0.99762
                                  Total H  = 1.110092e+02
                                  Total O  = 5.636708e+01

----------------------------Distribution of species----------------------------

                                                    MacInnes  MacInnes
                                MacInnes       Log       Log       Log    mole V
   Species          Molality    Activity  Molality  Activity     Gamma   cm³/mol

   H+              4.531e-04   4.403e-04    -3.344    -3.356    -0.012      0.00
   OH-             2.355e-11   2.307e-11   -10.628   -10.637    -0.009     -4.07
   H2O             5.551e+01   9.923e-01     1.744    -0.003     0.000     18.06
C(4)          4.312e-01
   CO2             4.308e-01   4.258e-01    -0.366    -0.371    -0.005     34.78
   HCO3-           4.531e-04   4.439e-04    -3.344    -3.353    -0.009     23.38
   CO3-2           5.139e-11   4.684e-11   -10.289   -10.329    -0.040     -4.82

------------------------------Saturation indices-------------------------------

  Phase               SI** log IAP   log K(298 K,  14 atm)

  CO2(g)            1.10     -0.37   -1.47  CO2	 Pressure  13.7 atm, phi 0.925
  H2O(g)           -1.50     -0.00    1.50  H2O	 Pressure   0.0 atm, phi 0.874

**For a gas, SI = log10(fugacity). Fugacity = pressure * phi / 1 atm.
  For ideal gases, phi = 1.

Reaction step 2.

Using solution 1.	pH 7 charge
Using gas phase 6.	
Using reaction 1.	

Reaction 1.	

	  1.038e+00 moles of the following reaction have been added:

	                 Relative
	Reactant            moles

	CO2                  1.00000

	                 Relative
	Element             moles
	C                    1.00000
	O                    2.00000

-----------------------------------Gas phase-----------------------------------

Total pressure: 26.77      atmospheres          (Peng-Robinson calculation)
    Gas volume:   1.00e+00 liters
  Molar volume:   7.65e-01 liters/mole
   P * Vm / RT:  0.83756  (Compressibility Factor Z) 

                                                        Moles in gas
                                            ----------------------------------
Component         log P           P    phi     Initial       Final       Delta

CO2(g)             1.43   2.673e+01  0.857   6.072e-01   1.304e+00   6.971e-01
H2O(g)            -1.38   4.167e-02  0.758   1.599e-03   2.034e-03   4.343e-04

-----------------------------Solution composition------------------------------

	Elements           Molality       Moles

	C                 7.726e-01   7.726e-01

----------------------------Description of solution----------------------------

                                       pH  =   3.231      Charge balance
                                       pe  =   4.000      Adjusted to redox equilibrium
      Specific Conductance (µS/cm,  25°C)  = 219
                          Density (g/cm³)  =   1.00521
                               Volume (L)  =   1.02861
                        Viscosity (mPa s)  =   0.94246
                        Activity of water  =   0.986
                 Ionic strength (mol/kgw)  =   6.090e-04
                       Mass of water (kg)  =   1.000e+00
                 Total alkalinity (eq/kg)  =   1.216e-09
                       Total CO2 (mol/kg)  =   7.726e-01
                         Temperature (°C)  =  25.00
                           Pressure (atm)  = 26.77
                  Electrical balance (eq)  =  -1.216e-09
 Percent error, 100*(Cat-|An|)/(Cat+|An|)  =  -0.00
                               Iterations  =  22
                         Gamma iterations  =   3
                      Osmotic coefficient  =   0.98966
                         Density of water  =   0.99821
                                  Total H  = 1.110084e+02
                                  Total O  = 5.704937e+01

----------------------------Distribution of species----------------------------

                                                    MacInnes  MacInnes
                                MacInnes       Log       Log       Log    mole V
   Species          Molality    Activity  Molality  Activity     Gamma   cm³/mol

   H+              6.090e-04   5.876e-04    -3.215    -3.231    -0.016      0.00
   OH-             1.776e-11   1.739e-11   -10.751   -10.760    -0.009     -4.02
   H2O             5.551e+01   9.863e-01     1.744    -0.006     0.000     18.05
C(4)          7.726e-01
   CO2             7.720e-01   7.562e-01    -0.112    -0.121    -0.009     34.77
   HCO3-           6.090e-04   5.964e-04    -3.215    -3.224    -0.009     23.48
   CO3-2           5.300e-11   4.787e-11   -10.276   -10.320    -0.044     -4.68

------------------------------Saturation indices-------------------------------

  Phase               SI** log IAP   log K(298 K,  27 atm)

  CO2(g)            1.36     -0.12   -1.48  CO2	 Pressure  26.7 atm, phi 0.857
  H2O(g)           -1.50     -0.01    1.49  H2O	 Pressure   0.0 atm, phi 0.758

**For a gas, SI = log10(fugacity). Fugacity = pressure * phi / 1 atm.
  For ideal gases, phi = 1.

Reaction step 3.

Using solution 1.	pH 7 charge
Using gas phase 6.	
Using reaction 1.	

Reaction 1.	

	  1.038e+00 moles of the following reaction have been added:

	                 Relative
	Reactant            moles

	CO2                  1.00000

	                 Relative
	Element             moles
	C                    1.00000
	O                    2.00000

-----------------------------------Gas phase-----------------------------------

Total pressure: 38.55      atmospheres          (Peng-Robinson calculation)
    Gas volume:   1.00e+00 liters
  Molar volume:   4.78e-01 liters/mole
   P * Vm / RT:  0.75247  (Compressibility Factor Z) 

                                                        Moles in gas
                                            ----------------------------------
Component         log P           P    phi     Initial       Final       Delta

CO2(g)             1.59   3.850e+01  0.796   1.304e+00   2.092e+00   7.872e-01
H2O(g)            -1.32   4.842e-02  0.655   2.034e-03   2.630e-03   5.962e-04

-----------------------------Solution composition------------------------------

	Elements           Molality       Moles

	C                 1.024e+00   1.024e+00

----------------------------Description of solution----------------------------

                                       pH  =   3.170      Charge balance
                                       pe  =   4.000      Adjusted to redox equilibrium
      Specific Conductance (µS/cm,  25°C)  = 247
                          Density (g/cm³)  =   1.00794
                               Volume (L)  =   1.03678
                        Viscosity (mPa s)  =   0.95947
                        Activity of water  =   0.982
                 Ionic strength (mol/kgw)  =   7.036e-04
                       Mass of water (kg)  =   9.999e-01
                 Total alkalinity (eq/kg)  =   1.216e-09
                       Total CO2 (mol/kg)  =   1.024e+00
                         Temperature (°C)  =  25.00
                           Pressure (atm)  = 38.55
                  Electrical balance (eq)  =  -1.216e-09
 Percent error, 100*(Cat-|An|)/(Cat+|An|)  =  -0.00
                               Iterations  =  22
                         Gamma iterations  =   3
                      Osmotic coefficient  =   0.98629
                         Density of water  =   0.99874
                                  Total H  = 1.110072e+02
                                  Total O  = 5.755133e+01

----------------------------Distribution of species----------------------------

                                                    MacInnes  MacInnes
                                MacInnes       Log       Log       Log    mole V
   Species          Molality    Activity  Molality  Activity     Gamma   cm³/mol

   H+              7.036e-04   6.758e-04    -3.153    -3.170    -0.018      0.00
   OH-             1.553e-11   1.521e-11   -10.809   -10.818    -0.009     -3.97
   H2O             5.551e+01   9.820e-01     1.744    -0.008     0.000     18.04
C(4)          1.024e+00
   CO2             1.023e+00   9.956e-01     0.010    -0.002    -0.012     34.75
   HCO3-           7.036e-04   6.893e-04    -3.153    -3.162    -0.009     23.55
   CO3-2           5.418e-11   4.876e-11   -10.266   -10.312    -0.046     -4.57

------------------------------Saturation indices-------------------------------

  Phase               SI** log IAP   log K(298 K,  39 atm)

  CO2(g)            1.49     -0.00   -1.49  CO2	 Pressure  38.5 atm, phi 0.796
  H2O(g)           -1.50     -0.01    1.49  H2O	 Pressure   0.0 atm, phi 0.655

**For a gas, SI = log10(fugacity). Fugacity = pressure * phi / 1 atm.
  For ideal gases, phi = 1.

Reaction step 4.

Using solution 1.	pH 7 charge
Using gas phase 6.	
Using reaction 1.	

Reaction 1.	

	  1.038e+00 moles of the following reaction have been added:

	                 Relative
	Reactant            moles

	CO2                  1.00000

	                 Relative
	Element             moles
	C                    1.00000
	O                    2.00000

-----------------------------------Gas phase-----------------------------------

Total pressure: 48.44      atmospheres          (Peng-Robinson calculation)
    Gas volume:   1.00e+00 liters
  Molar volume:   3.37e-01 liters/mole
   P * Vm / RT:  0.66813  (Compressibility Factor Z) 

                                                        Moles in gas
                                            ----------------------------------
Component         log P           P    phi     Initial       Final       Delta

CO2(g)             1.68   4.839e+01  0.746   2.092e+00   2.960e+00   8.686e-01
H2O(g)            -1.25   5.616e-02  0.567   2.630e-03   3.436e-03   8.058e-04

-----------------------------Solution composition------------------------------

	Elements           Molality       Moles

	C                 1.194e+00   1.194e+00

----------------------------Description of solution----------------------------

                                       pH  =   3.137      Charge balance
                                       pe  =   4.000      Adjusted to redox equilibrium
      Specific Conductance (µS/cm,  25°C)  = 264
                          Density (g/cm³)  =   1.00985
                               Volume (L)  =   1.04222
                        Viscosity (mPa s)  =   0.97096
                        Activity of water  =   0.979
                 Ionic strength (mol/kgw)  =   7.622e-04
                       Mass of water (kg)  =   9.999e-01
                 Total alkalinity (eq/kg)  =   1.217e-09
                       Total CO2 (mol/kg)  =   1.194e+00
                         Temperature (°C)  =  25.00
                           Pressure (atm)  = 48.44
                  Electrical balance (eq)  =  -1.216e-09
 Percent error, 100*(Cat-|An|)/(Cat+|An|)  =  -0.00
                               Iterations  =  20
                         Gamma iterations  =   3
                      Osmotic coefficient  =   0.98402
                         Density of water  =   0.99918
                                  Total H  = 1.110056e+02
                                  Total O  = 5.789032e+01

----------------------------Distribution of species----------------------------

                                                    MacInnes  MacInnes
                                MacInnes       Log       Log       Log    mole V
   Species          Molality    Activity  Molality  Activity     Gamma   cm³/mol

   H+              7.622e-04   7.300e-04    -3.118    -3.137    -0.019      0.00
   OH-             1.445e-11   1.416e-11   -10.840   -10.849    -0.009     -3.94
   H2O             5.551e+01   9.790e-01     1.744    -0.009     0.000     18.03
C(4)          1.194e+00
   CO2             1.193e+00   1.156e+00     0.077     0.063    -0.014     34.74
   HCO3-           7.622e-04   7.471e-04    -3.118    -3.127    -0.009     23.60
   CO3-2           5.507e-11   4.948e-11   -10.259   -10.306    -0.047     -4.47

------------------------------Saturation indices-------------------------------

  Phase               SI** log IAP   log K(298 K,  48 atm)

  CO2(g)            1.56      0.06   -1.49  CO2	 Pressure  48.4 atm, phi 0.746
  H2O(g)           -1.50     -0.01    1.49  H2O	 Pressure   0.1 atm, phi 0.567

**For a gas, SI = log10(fugacity). Fugacity = pressure * phi / 1 atm.
  For ideal gases, phi = 1.

Reaction step 5.

Using solution 1.	pH 7 charge
Using gas phase 6.	
Using reaction 1.	

Reaction 1.	

	  1.038e+00 moles of the following reaction have been added:

	                 Relative
	Reactant            moles

	CO2                  1.00000

	                 Relative
	Element             moles
	C                    1.00000
	O                    2.00000

-----------------------------------Gas phase-----------------------------------

Total pressure: 56.02      atmospheres          (Peng-Robinson calculation)
    Gas volume:   1.00e+00 liters
  Molar volume:   2.56e-01 liters/mole
   P * Vm / RT:  0.58734  (Compressibility Factor Z) 

                                                        Moles in gas
                                            ----------------------------------
Component         log P           P    phi     Initial       Final       Delta

CO2(g)             1.75   5.596e+01  0.707   2.960e+00   3.894e+00   9.341e-01
H2O(g)            -1.19   6.465e-02  0.495   3.436e-03   4.499e-03   1.063e-03

-----------------------------Solution composition------------------------------

	Elements           Molality       Moles

	C                 1.298e+00   1.298e+00

----------------------------Description of solution----------------------------

                                       pH  =   3.118      Charge balance
                                       pe  =   4.000      Adjusted to redox equilibrium
      Specific Conductance (µS/cm,  25°C)  = 273
                          Density (g/cm³)  =   1.01108
                               Volume (L)  =   1.04547
                        Viscosity (mPa s)  =   0.97799
                        Activity of water  =   0.977
                 Ionic strength (mol/kgw)  =   7.971e-04
                       Mass of water (kg)  =   9.999e-01
                 Total alkalinity (eq/kg)  =   1.217e-09
                       Total CO2 (mol/kg)  =   1.298e+00
                         Temperature (°C)  =  25.00
                           Pressure (atm)  = 56.02
                  Electrical balance (eq)  =  -1.216e-09
 Percent error, 100*(Cat-|An|)/(Cat+|An|)  =  -0.00
                               Iterations  =  19
                         Gamma iterations  =   3
                      Osmotic coefficient  =   0.98262
                         Density of water  =   0.99952
                                  Total H  = 1.110034e+02
                                  Total O  = 5.809789e+01

----------------------------Distribution of species----------------------------

                                                    MacInnes  MacInnes
                                MacInnes       Log       Log       Log    mole V
   Species          Molality    Activity  Molality  Activity     Gamma   cm³/mol

   H+              7.971e-04   7.621e-04    -3.098    -3.118    -0.020      0.00
   OH-             1.391e-11   1.363e-11   -10.857   -10.865    -0.009     -3.91
   H2O             5.551e+01   9.773e-01     1.744    -0.010     0.000     18.02
C(4)          1.298e+00
   CO2             1.297e+00   1.253e+00     0.113     0.098    -0.015     34.73
   HCO3-           7.971e-04   7.815e-04    -3.098    -3.107    -0.009     23.63
   CO3-2           5.571e-11   5.001e-11   -10.254   -10.301    -0.047     -4.40

------------------------------Saturation indices-------------------------------

  Phase               SI** log IAP   log K(298 K,  56 atm)

  CO2(g)            1.60      0.10   -1.50  CO2	 Pressure  56.0 atm, phi 0.707
  H2O(g)           -1.50     -0.01    1.49  H2O	 Pressure   0.1 atm, phi 0.495

**For a gas, SI = log10(fugacity). Fugacity = pressure * phi / 1 atm.
  For ideal gases, phi = 1.

Reaction step 6.

Using solution 1.	pH 7 charge
Using gas phase 6.	
Using reaction 1.	

Reaction 1.	

	  1.038e+00 moles of the following reaction have been added:

	                 Relative
	Reactant            moles

	CO2                  1.00000

	                 Relative
	Element             moles
	C                    1.00000
	O                    2.00000

-----------------------------------Gas phase-----------------------------------

Total pressure: 61.19      atmospheres          (Peng-Robinson calculation)
    Gas volume:   1.00e+00 liters
  Molar volume:   2.05e-01 liters/mole
   P * Vm / RT:  0.51231  (Compressibility Factor Z) 

                                                        Moles in gas
                                            ----------------------------------
Component         log P           P    phi     Initial       Final       Delta

CO2(g)             1.79   6.111e+01  0.680   3.894e+00   4.876e+00   9.815e-01
H2O(g)            -1.13   7.352e-02  0.436   4.499e-03   5.865e-03   1.366e-03

-----------------------------Solution composition------------------------------

	Elements           Molality       Moles

	C                 1.355e+00   1.355e+00

----------------------------Description of solution----------------------------

                                       pH  =   3.108      Charge balance
                                       pe  =   4.000      Adjusted to redox equilibrium
      Specific Conductance (µS/cm,  25°C)  = 279
                          Density (g/cm³)  =   1.01179
                               Volume (L)  =   1.04718
                        Viscosity (mPa s)  =   0.98183
                        Activity of water  =   0.976
                 Ionic strength (mol/kgw)  =   8.162e-04
                       Mass of water (kg)  =   9.999e-01
                 Total alkalinity (eq/kg)  =   1.217e-09
                       Total CO2 (mol/kg)  =   1.355e+00
                         Temperature (°C)  =  25.00
                           Pressure (atm)  = 61.19
                  Electrical balance (eq)  =  -1.217e-09
 Percent error, 100*(Cat-|An|)/(Cat+|An|)  =  -0.00
                               Iterations  =  17
                         Gamma iterations  =   3
                      Osmotic coefficient  =   0.98186
                         Density of water  =   0.99975
                                  Total H  = 1.110007e+02
                                  Total O  = 5.821045e+01

----------------------------Distribution of species----------------------------

                                                    MacInnes  MacInnes
                                MacInnes       Log       Log       Log    mole V
   Species          Molality    Activity  Molality  Activity     Gamma   cm³/mol

   H+              8.162e-04   7.796e-04    -3.088    -3.108    -0.020      0.00
   OH-             1.364e-11   1.338e-11   -10.865   -10.874    -0.009     -3.89
   H2O             5.551e+01   9.763e-01     1.744    -0.010     0.000     18.02
C(4)          1.355e+00
   CO2             1.354e+00   1.306e+00     0.132     0.116    -0.016     34.73
   HCO3-           8.162e-04   8.004e-04    -3.088    -3.097    -0.009     23.65
   CO3-2           5.612e-11   5.036e-11   -10.251   -10.298    -0.047     -4.35

------------------------------Saturation indices-------------------------------

  Phase               SI** log IAP   log K(298 K,  61 atm)

  CO2(g)            1.62      0.12   -1.50  CO2	 Pressure  61.1 atm, phi 0.680
  H2O(g)           -1.49     -0.01    1.48  H2O	 Pressure   0.1 atm, phi 0.436

**For a gas, SI = log10(fugacity). Fugacity = pressure * phi / 1 atm.
  For ideal gases, phi = 1.

Reaction step 7.

Using solution 1.	pH 7 charge
Using gas phase 6.	
Using reaction 1.	

Reaction 1.	

	  1.038e+00 moles of the following reaction have been added:

	                 Relative
	Reactant            moles

	CO2                  1.00000

	                 Relative
	Element             moles
	C                    1.00000
	O                    2.00000

-----------------------------------Gas phase-----------------------------------

Total pressure: 64.10      atmospheres          (Peng-Robinson calculation)
    Gas volume:   1.00e+00 liters
  Molar volume:   1.70e-01 liters/mole
   P * Vm / RT:  0.44439  (Compressibility Factor Z) 

                                                        Moles in gas
                                            ----------------------------------
Component         log P           P    phi     Initial       Final       Delta

CO2(g)             1.81   6.402e+01  0.663   4.876e+00   5.888e+00   1.012e+00
H2O(g)            -1.08   8.236e-02  0.390   5.865e-03   7.575e-03   1.710e-03

-----------------------------Solution composition------------------------------

	Elements           Molality       Moles

	C                 1.381e+00   1.381e+00

----------------------------Description of solution----------------------------

                                       pH  =   3.104      Charge balance
                                       pe  =   4.000      Adjusted to redox equilibrium
      Specific Conductance (µS/cm,  25°C)  = 281
                          Density (g/cm³)  =   1.01214
                               Volume (L)  =   1.04792
                        Viscosity (mPa s)  =   0.98357
                        Activity of water  =   0.976
                 Ionic strength (mol/kgw)  =   8.251e-04
                       Mass of water (kg)  =   9.998e-01
                 Total alkalinity (eq/kg)  =   1.217e-09
                       Total CO2 (mol/kg)  =   1.381e+00
                         Temperature (°C)  =  25.00
                           Pressure (atm)  = 64.10
                  Electrical balance (eq)  =  -1.217e-09
 Percent error, 100*(Cat-|An|)/(Cat+|An|)  =  -0.00
                               Iterations  =  14
                         Gamma iterations  =   3
                      Osmotic coefficient  =   0.98151
                         Density of water  =   0.99988
                                  Total H  = 1.109973e+02
                                  Total O  = 5.826070e+01

----------------------------Distribution of species----------------------------

                                                    MacInnes  MacInnes
                                MacInnes       Log       Log       Log    mole V
   Species          Molality    Activity  Molality  Activity     Gamma   cm³/mol

   H+              8.251e-04   7.878e-04    -3.083    -3.104    -0.020      0.00
   OH-             1.353e-11   1.327e-11   -10.869   -10.877    -0.008     -3.88
   H2O             5.551e+01   9.759e-01     1.744    -0.011     0.000     18.02
C(4)          1.381e+00
   CO2             1.380e+00   1.330e+00     0.140     0.124    -0.016     34.73
   HCO3-           8.251e-04   8.092e-04    -3.083    -3.092    -0.008     23.66
   CO3-2           5.634e-11   5.055e-11   -10.249   -10.296    -0.047     -4.32

------------------------------Saturation indices-------------------------------

  Phase               SI** log IAP   log K(298 K,  64 atm)

  CO2(g)            1.63      0.12   -1.50  CO2	 Pressure  64.0 atm, phi 0.663
  H2O(g)           -1.49     -0.01    1.48  H2O	 Pressure   0.1 atm, phi 0.390

**For a gas, SI = log10(fugacity). Fugacity = pressure * phi / 1 atm.
  For ideal gases, phi = 1.

Reaction step 8.

Using solution 1.	pH 7 charge
Using gas phase 6.	
Using reaction 1.	

Reaction 1.	

	  1.038e+00 moles of the following reaction have been added:

	                 Relative
	Reactant            moles

	CO2                  1.00000

	                 Relative
	Element             moles
	C                    1.00000
	O                    2.00000

-----------------------------------Gas phase-----------------------------------

Total pressure: 65.13      atmospheres          (Peng-Robinson calculation)
    Gas volume:   1.00e+00 liters
  Molar volume:   1.44e-01 liters/mole
   P * Vm / RT:  0.38421  (Compressibility Factor Z) 

                                                        Moles in gas
                                            ----------------------------------
Component         log P           P    phi     Initial       Final       Delta

CO2(g)             1.81   6.504e+01  0.657   5.888e+00   6.919e+00   1.031e+00
H2O(g)            -1.04   9.085e-02  0.354   7.575e-03   9.664e-03   2.089e-03

-----------------------------Solution composition------------------------------

	Elements           Molality       Moles

	C                 1.389e+00   1.389e+00

----------------------------Description of solution----------------------------

                                       pH  =   3.102      Charge balance
                                       pe  =   4.000      Adjusted to redox equilibrium
      Specific Conductance (µS/cm,  25°C)  = 282
                          Density (g/cm³)  =   1.01225
                               Volume (L)  =   1.04810
                        Viscosity (mPa s)  =   0.98408
                        Activity of water  =   0.976
                 Ionic strength (mol/kgw)  =   8.278e-04
                       Mass of water (kg)  =   9.998e-01
                 Total alkalinity (eq/kg)  =   1.217e-09
                       Total CO2 (mol/kg)  =   1.389e+00
                         Temperature (°C)  =  25.00
                           Pressure (atm)  = 65.13
                  Electrical balance (eq)  =  -1.217e-09
 Percent error, 100*(Cat-|An|)/(Cat+|An|)  =  -0.00
                               Iterations  =  11
                         Gamma iterations  =   2
                      Osmotic coefficient  =   0.98141
                         Density of water  =   0.99992
                                  Total H  = 1.109931e+02
                                  Total O  = 5.827368e+01

----------------------------Distribution of species----------------------------

                                                    MacInnes  MacInnes
                                MacInnes       Log       Log       Log    mole V
   Species          Molality    Activity  Molality  Activity     Gamma   cm³/mol

   H+              8.278e-04   7.902e-04    -3.082    -3.102    -0.020      0.00
   OH-             1.350e-11   1.324e-11   -10.870   -10.878    -0.008     -3.87
   H2O             5.551e+01   9.757e-01     1.744    -0.011     0.000     18.02
C(4)          1.389e+00
   CO2             1.388e+00   1.337e+00     0.142     0.126    -0.016     34.72
   HCO3-           8.278e-04   8.118e-04    -3.082    -3.091    -0.008     23.67
   CO3-2           5.642e-11   5.062e-11   -10.249   -10.296    -0.047     -4.31

------------------------------Saturation indices-------------------------------

  Phase               SI** log IAP   log K(298 K,  65 atm)

  CO2(g)            1.63      0.13   -1.50  CO2	 Pressure  65.0 atm, phi 0.657
  H2O(g)           -1.49     -0.01    1.48  H2O	 Pressure   0.1 atm, phi 0.354

**For a gas, SI = log10(fugacity). Fugacity = pressure * phi / 1 atm.
  For ideal gases, phi = 1.

Reaction step 9.

Using solution 1.	pH 7 charge
Using gas phase 6.	
Using reaction 1.	

Reaction 1.	

	  1.038e+00 moles of the following reaction have been added:

	                 Relative
	Reactant            moles

	CO2                  1.00000

	                 Relative
	Element             moles
	C                    1.00000
	O                    2.00000

-----------------------------------Gas phase-----------------------------------

Total pressure: 65.14      atmospheres          (Peng-Robinson calculation)
    Gas volume:   1.00e+00 liters
  Molar volume:   1.25e-01 liters/mole
   P * Vm / RT:  0.33407  (Compressibility Factor Z) 

                                                        Moles in gas
                                            ----------------------------------
Component         log P           P    phi     Initial       Final       Delta

CO2(g)             1.81   6.504e+01  0.657   6.919e+00   7.958e+00   1.039e+00
H2O(g)            -1.00   9.927e-02  0.324   9.664e-03   1.215e-02   2.481e-03

-----------------------------Solution composition------------------------------

	Elements           Molality       Moles

	C                 1.389e+00   1.388e+00

----------------------------Description of solution----------------------------

                                       pH  =   3.102      Charge balance
                                       pe  =   4.000      Adjusted to redox equilibrium
      Specific Conductance (µS/cm,  25°C)  = 282
                          Density (g/cm³)  =   1.01225
                               Volume (L)  =   1.04805
                        Viscosity (mPa s)  =   0.98408
                        Activity of water  =   0.976
                 Ionic strength (mol/kgw)  =   8.277e-04
                       Mass of water (kg)  =   9.998e-01
                 Total alkalinity (eq/kg)  =   1.218e-09
                       Total CO2 (mol/kg)  =   1.389e+00
                         Temperature (°C)  =  25.00
                           Pressure (atm)  = 65.14
                  Electrical balance (eq)  =  -1.217e-09
 Percent error, 100*(Cat-|An|)/(Cat+|An|)  =  -0.00
                               Iterations  =   8
                         Gamma iterations  =   2
                      Osmotic coefficient  =   0.98141
                         Density of water  =   0.99992
                                  Total H  = 1.109881e+02
                                  Total O  = 5.827097e+01

----------------------------Distribution of species----------------------------

                                                    MacInnes  MacInnes
                                MacInnes       Log       Log       Log    mole V
   Species          Molality    Activity  Molality  Activity     Gamma   cm³/mol

   H+              8.277e-04   7.902e-04    -3.082    -3.102    -0.020      0.00
   OH-             1.350e-11   1.324e-11   -10.870   -10.878    -0.008     -3.87
   H2O             5.551e+01   9.757e-01     1.744    -0.011     0.000     18.02
C(4)          1.389e+00
   CO2             1.388e+00   1.337e+00     0.142     0.126    -0.016     34.72
   HCO3-           8.277e-04   8.118e-04    -3.082    -3.091    -0.008     23.67
   CO3-2           5.642e-11   5.062e-11   -10.249   -10.296    -0.047     -4.31

------------------------------Saturation indices-------------------------------

  Phase               SI** log IAP   log K(298 K,  65 atm)

  CO2(g)            1.63      0.13   -1.50  CO2	 Pressure  65.0 atm, phi 0.657
  H2O(g)           -1.49     -0.01    1.48  H2O	 Pressure   0.1 atm, phi 0.324

**For a gas, SI = log10(fugacity). Fugacity = pressure * phi / 1 atm.
  For ideal gases, phi = 1.

Reaction step 10.

Using solution 1.	pH 7 charge
Using gas phase 6.	
Using reaction 1.	

Reaction 1.	

	  1.038e+00 moles of the following reaction have been added:

	                 Relative
	Reactant            moles

	CO2                  1.00000

	                 Relative
	Element             moles
	C                    1.00000
	O                    2.00000

-----------------------------------Gas phase-----------------------------------

Total pressure: 65.13      atmospheres          (Peng-Robinson calculation)
    Gas volume:   1.00e+00 liters
  Molar volume:   1.11e-01 liters/mole
   P * Vm / RT:  0.29537  (Compressibility Factor Z) 

                                                        Moles in gas
                                            ----------------------------------
Component         log P           P    phi     Initial       Final       Delta

CO2(g)             1.81   6.502e+01  0.657   7.958e+00   8.997e+00   1.039e+00
H2O(g)            -0.96   1.085e-01  0.296   1.215e-02   1.502e-02   2.873e-03

-----------------------------Solution composition------------------------------

	Elements           Molality       Moles

	C                 1.388e+00   1.387e+00

----------------------------Description of solution----------------------------

                                       pH  =   3.102      Charge balance
                                       pe  =   4.000      Adjusted to redox equilibrium
      Specific Conductance (µS/cm,  25°C)  = 282
                          Density (g/cm³)  =   1.01224
                               Volume (L)  =   1.04796
                        Viscosity (mPa s)  =   0.98401
                        Activity of water  =   0.976
                 Ionic strength (mol/kgw)  =   8.275e-04
                       Mass of water (kg)  =   9.997e-01
                 Total alkalinity (eq/kg)  =   1.218e-09
                       Total CO2 (mol/kg)  =   1.388e+00
                         Temperature (°C)  =  25.00
                           Pressure (atm)  = 65.13
                  Electrical balance (eq)  =  -1.217e-09
 Percent error, 100*(Cat-|An|)/(Cat+|An|)  =  -0.00
                               Iterations  =  10
                         Gamma iterations  =   2
                      Osmotic coefficient  =   0.98142
                         Density of water  =   0.99992
                                  Total H  = 1.109824e+02
                                  Total O  = 5.826617e+01

----------------------------Distribution of species----------------------------

                                                    MacInnes  MacInnes
                                MacInnes       Log       Log       Log    mole V
   Species          Molality    Activity  Molality  Activity     Gamma   cm³/mol

   H+              8.275e-04   7.900e-04    -3.082    -3.102    -0.020      0.00
   OH-             1.350e-11   1.324e-11   -10.870   -10.878    -0.008     -3.87
   H2O             5.551e+01   9.757e-01     1.744    -0.011     0.000     18.02
C(4)          1.388e+00
   CO2             1.387e+00   1.336e+00     0.142     0.126    -0.016     34.72
   HCO3-           8.275e-04   8.115e-04    -3.082    -3.091    -0.008     23.67
   CO3-2           5.642e-11   5.061e-11   -10.249   -10.296    -0.047     -4.31

------------------------------Saturation indices-------------------------------

  Phase               SI** log IAP   log K(298 K,  65 atm)

  CO2(g)            1.63      0.13   -1.50  CO2	 Pressure  65.0 atm, phi 0.657
  H2O(g)           -1.49     -0.01    1.48  H2O	 Pressure   0.1 atm, phi 0.296

**For a gas, SI = log10(fugacity). Fugacity = pressure * phi / 1 atm.
  For ideal gases, phi = 1.

Reaction step 11.

Using solution 1.	pH 7 charge
Using gas phase 6.	
Using reaction 1.	

Reaction 1.	

	  1.038e+00 moles of the following reaction have been added:

	                 Relative
	Reactant            moles

	CO2                  1.00000

	                 Relative
	Element             moles
	C                    1.00000
	O                    2.00000

-----------------------------------Gas phase-----------------------------------

Total pressure: 65.11      atmospheres          (Peng-Robinson calculation)
    Gas volume:   1.00e+00 liters
  Molar volume:   9.94e-02 liters/mole
   P * Vm / RT:  0.26465  (Compressibility Factor Z) 

                                                        Moles in gas
                                            ----------------------------------
Component         log P           P    phi     Initial       Final       Delta

CO2(g)             1.81   6.499e+01  0.657   8.997e+00   1.004e+01   1.040e+00
H2O(g)            -0.93   1.187e-01  0.271   1.502e-02   1.833e-02   3.311e-03

-----------------------------Solution composition------------------------------

	Elements           Molality       Moles

	C                 1.386e+00   1.386e+00

----------------------------Description of solution----------------------------

                                       pH  =   3.103      Charge balance
                                       pe  =   4.000      Adjusted to redox equilibrium
      Specific Conductance (µS/cm,  25°C)  = 282
                          Density (g/cm³)  =   1.01223
                               Volume (L)  =   1.04784
                        Viscosity (mPa s)  =   0.98390
                        Activity of water  =   0.976
                 Ionic strength (mol/kgw)  =   8.270e-04
                       Mass of water (kg)  =   9.997e-01
                 Total alkalinity (eq/kg)  =   1.218e-09
                       Total CO2 (mol/kg)  =   1.386e+00
                         Temperature (°C)  =  25.00
                           Pressure (atm)  = 65.11
                  Electrical balance (eq)  =  -1.217e-09
 Percent error, 100*(Cat-|An|)/(Cat+|An|)  =  -0.00
                               Iterations  =  10
                         Gamma iterations  =   2
                      Osmotic coefficient  =   0.98145
                         Density of water  =   0.99992
                                  Total H  = 1.109758e+02
                                  Total O  = 5.825922e+01

----------------------------Distribution of species----------------------------

                                                    MacInnes  MacInnes
                                MacInnes       Log       Log       Log    mole V
   Species          Molality    Activity  Molality  Activity     Gamma   cm³/mol

   H+              8.270e-04   7.895e-04    -3.083    -3.103    -0.020      0.00
   OH-             1.351e-11   1.325e-11   -10.869   -10.878    -0.008     -3.87
   H2O             5.551e+01   9.758e-01     1.744    -0.011     0.000     18.02
C(4)          1.386e+00
   CO2             1.385e+00   1.335e+00     0.142     0.125    -0.016     34.72
   HCO3-           8.270e-04   8.110e-04    -3.083    -3.091    -0.008     23.67
   CO3-2           5.642e-11   5.061e-11   -10.249   -10.296    -0.047     -4.31

------------------------------Saturation indices-------------------------------

  Phase               SI** log IAP   log K(298 K,  65 atm)

  CO2(g)            1.63      0.13   -1.50  CO2	 Pressure  65.0 atm, phi 0.657
  H2O(g)           -1.49     -0.01    1.48  H2O	 Pressure   0.1 atm, phi 0.271

**For a gas, SI = log10(fugacity). Fugacity = pressure * phi / 1 atm.
  For ideal gases, phi = 1.

Reaction step 12.

Using solution 1.	pH 7 charge
Using gas phase 6.	
Using reaction 1.	

Reaction 1.	

	  1.038e+00 moles of the following reaction have been added:

	                 Relative
	Reactant            moles

	CO2                  1.00000

	                 Relative
	Element             moles
	C                    1.00000
	O                    2.00000

-----------------------------------Gas phase-----------------------------------

Total pressure: 65.09      atmospheres          (Peng-Robinson calculation)
    Gas volume:   1.00e+00 liters
  Molar volume:   9.01e-02 liters/mole
   P * Vm / RT:  0.23968  (Compressibility Factor Z) 

                                                        Moles in gas
                                            ----------------------------------
Component         log P           P    phi     Initial       Final       Delta

CO2(g)             1.81   6.496e+01  0.656   1.004e+01   1.108e+01   1.041e+00
H2O(g)            -0.89   1.297e-01  0.248   1.833e-02   2.212e-02   3.793e-03

-----------------------------Solution composition------------------------------

	Elements           Molality       Moles

	C                 1.384e+00   1.383e+00

----------------------------Description of solution----------------------------

                                       pH  =   3.103      Charge balance
                                       pe  =   4.000      Adjusted to redox equilibrium
      Specific Conductance (µS/cm,  25°C)  = 281
                          Density (g/cm³)  =   1.01221
                               Volume (L)  =   1.04769
                        Viscosity (mPa s)  =   0.98374
                        Activity of water  =   0.976
                 Ionic strength (mol/kgw)  =   8.263e-04
                       Mass of water (kg)  =   9.996e-01
                 Total alkalinity (eq/kg)  =   1.218e-09
                       Total CO2 (mol/kg)  =   1.384e+00
                         Temperature (°C)  =  25.00
                           Pressure (atm)  = 65.09
                  Electrical balance (eq)  =  -1.217e-09
 Percent error, 100*(Cat-|An|)/(Cat+|An|)  =  -0.00
                               Iterations  =  11
                         Gamma iterations  =   2
                      Osmotic coefficient  =   0.98148
                         Density of water  =   0.99992
                                  Total H  = 1.109682e+02
                                  Total O  = 5.825061e+01

----------------------------Distribution of species----------------------------

                                                    MacInnes  MacInnes
                                MacInnes       Log       Log       Log    mole V
   Species          Molality    Activity  Molality  Activity     Gamma   cm³/mol

   H+              8.263e-04   7.889e-04    -3.083    -3.103    -0.020      0.00
   OH-             1.352e-11   1.326e-11   -10.869   -10.878    -0.008     -3.87
   H2O             5.551e+01   9.758e-01     1.744    -0.011     0.000     18.02
C(4)          1.384e+00
   CO2             1.383e+00   1.333e+00     0.141     0.125    -0.016     34.72
   HCO3-           8.263e-04   8.104e-04    -3.083    -3.091    -0.008     23.66
   CO3-2           5.641e-11   5.061e-11   -10.249   -10.296    -0.047     -4.31

------------------------------Saturation indices-------------------------------

  Phase               SI** log IAP   log K(298 K,  65 atm)

  CO2(g)            1.63      0.12   -1.50  CO2	 Pressure  65.0 atm, phi 0.656
  H2O(g)           -1.49     -0.01    1.48  H2O	 Pressure   0.1 atm, phi 0.248

**For a gas, SI = log10(fugacity). Fugacity = pressure * phi / 1 atm.
  For ideal gases, phi = 1.

Reaction step 13.

Using solution 1.	pH 7 charge
Using gas phase 6.	
Using reaction 1.	

Reaction 1.	

	  1.038e+00 moles of the following reaction have been added:

	                 Relative
	Reactant            moles

	CO2                  1.00000

	                 Relative
	Element             moles
	C                    1.00000
	O                    2.00000

-----------------------------------Gas phase-----------------------------------

Total pressure: 65.07      atmospheres          (Peng-Robinson calculation)
    Gas volume:   1.00e+00 liters
  Molar volume:   8.23e-02 liters/mole
   P * Vm / RT:  0.21898  (Compressibility Factor Z) 

                                                        Moles in gas
                                            ----------------------------------
Component         log P           P    phi     Initial       Final       Delta

CO2(g)             1.81   6.493e+01  0.655   1.108e+01   1.212e+01   1.041e+00
H2O(g)            -0.85   1.417e-01  0.227   2.212e-02   2.644e-02   4.319e-03

-----------------------------Solution composition------------------------------

	Elements           Molality       Moles

	C                 1.381e+00   1.381e+00

----------------------------Description of solution----------------------------

                                       pH  =   3.103      Charge balance
                                       pe  =   4.000      Adjusted to redox equilibrium
      Specific Conductance (µS/cm,  25°C)  = 281
                          Density (g/cm³)  =   1.01219
                               Volume (L)  =   1.04752
                        Viscosity (mPa s)  =   0.98357
                        Activity of water  =   0.976
                 Ionic strength (mol/kgw)  =   8.256e-04
                       Mass of water (kg)  =   9.995e-01
                 Total alkalinity (eq/kg)  =   1.218e-09
                       Total CO2 (mol/kg)  =   1.381e+00
                         Temperature (°C)  =  25.00
                           Pressure (atm)  = 65.07
                  Electrical balance (eq)  =  -1.217e-09
 Percent error, 100*(Cat-|An|)/(Cat+|An|)  =  -0.00
                               Iterations  =  11
                         Gamma iterations  =   2
                      Osmotic coefficient  =   0.98151
                         Density of water  =   0.99992
                                  Total H  = 1.109595e+02
                                  Total O  = 5.824114e+01

----------------------------Distribution of species----------------------------

                                                    MacInnes  MacInnes
                                MacInnes       Log       Log       Log    mole V
   Species          Molality    Activity  Molality  Activity     Gamma   cm³/mol

   H+              8.256e-04   7.883e-04    -3.083    -3.103    -0.020      0.00
   OH-             1.353e-11   1.327e-11   -10.869   -10.877    -0.008     -3.87
   H2O             5.551e+01   9.759e-01     1.744    -0.011     0.000     18.02
C(4)          1.381e+00
   CO2             1.381e+00   1.330e+00     0.140     0.124    -0.016     34.72
   HCO3-           8.256e-04   8.097e-04    -3.083    -3.092    -0.008     23.66
   CO3-2           5.641e-11   5.060e-11   -10.249   -10.296    -0.047     -4.31

------------------------------Saturation indices-------------------------------

  Phase               SI** log IAP   log K(298 K,  65 atm)

  CO2(g)            1.63      0.12   -1.50  CO2	 Pressure  64.9 atm, phi 0.655
  H2O(g)           -1.49     -0.01    1.48  H2O	 Pressure   0.1 atm, phi 0.227

**For a gas, SI = log10(fugacity). Fugacity = pressure * phi / 1 atm.
  For ideal gases, phi = 1.

Reaction step 14.

Using solution 1.	pH 7 charge
Using gas phase 6.	
Using reaction 1.	

Reaction 1.	

	  1.038e+00 moles of the following reaction have been added:

	                 Relative
	Reactant            moles

	CO2                  1.00000

	                 Relative
	Element             moles
	C                    1.00000
	O                    2.00000

-----------------------------------Gas phase-----------------------------------

Total pressure: 65.05      atmospheres          (Peng-Robinson calculation)
    Gas volume:   1.00e+00 liters
  Molar volume:   7.58e-02 liters/mole
   P * Vm / RT:  0.20156  (Compressibility Factor Z) 

                                                        Moles in gas
                                            ----------------------------------
Component         log P           P    phi     Initial       Final       Delta

CO2(g)             1.81   6.490e+01  0.654   1.212e+01   1.316e+01   1.041e+00
H2O(g)            -0.81   1.545e-01  0.208   2.644e-02   3.133e-02   4.886e-03

-----------------------------Solution composition------------------------------

	Elements           Molality       Moles

	C                 1.379e+00   1.378e+00

----------------------------Description of solution----------------------------

                                       pH  =   3.104      Charge balance
                                       pe  =   4.000      Adjusted to redox equilibrium
      Specific Conductance (µS/cm,  25°C)  = 281
                          Density (g/cm³)  =   1.01217
                               Volume (L)  =   1.04736
                        Viscosity (mPa s)  =   0.98342
                        Activity of water  =   0.976
                 Ionic strength (mol/kgw)  =   8.250e-04
                       Mass of water (kg)  =   9.994e-01
                 Total alkalinity (eq/kg)  =   1.218e-09
                       Total CO2 (mol/kg)  =   1.379e+00
                         Temperature (°C)  =  25.00
                           Pressure (atm)  = 65.05
                  Electrical balance (eq)  =  -1.217e-09
 Percent error, 100*(Cat-|An|)/(Cat+|An|)  =  -0.00
                               Iterations  =  11
                         Gamma iterations  =   2
                      Osmotic coefficient  =   0.98154
                         Density of water  =   0.99992
                                  Total H  = 1.109498e+02
                                  Total O  = 5.823170e+01

----------------------------Distribution of species----------------------------

                                                    MacInnes  MacInnes
                                MacInnes       Log       Log       Log    mole V
   Species          Molality    Activity  Molality  Activity     Gamma   cm³/mol

   H+              8.250e-04   7.877e-04    -3.084    -3.104    -0.020      0.00
   OH-             1.354e-11   1.328e-11   -10.868   -10.877    -0.008     -3.87
   H2O             5.551e+01   9.759e-01     1.744    -0.011     0.000     18.02
C(4)          1.379e+00
   CO2             1.378e+00   1.328e+00     0.139     0.123    -0.016     34.72
   HCO3-           8.250e-04   8.090e-04    -3.084    -3.092    -0.008     23.66
   CO3-2           5.640e-11   5.060e-11   -10.249   -10.296    -0.047     -4.31

------------------------------Saturation indices-------------------------------

  Phase               SI** log IAP   log K(298 K,  65 atm)

  CO2(g)            1.63      0.12   -1.50  CO2	 Pressure  64.9 atm, phi 0.654
  H2O(g)           -1.49     -0.01    1.48  H2O	 Pressure   0.2 atm, phi 0.208

**For a gas, SI = log10(fugacity). Fugacity = pressure * phi / 1 atm.
  For ideal gases, phi = 1.

Reaction step 15.

Using solution 1.	pH 7 charge
Using gas phase 6.	
Using reaction 1.	

Reaction 1.	

	  1.038e+00 moles of the following reaction have been added:

	                 Relative
	Reactant            moles

	CO2                  1.00000

	                 Relative
	Element             moles
	C                    1.00000
	O                    2.00000

-----------------------------------Gas phase-----------------------------------

Total pressure: 65.03      atmospheres          (Peng-Robinson calculation)
    Gas volume:   1.00e+00 liters
  Molar volume:   7.02e-02 liters/mole
   P * Vm / RT:  0.18670  (Compressibility Factor Z) 

                                                        Moles in gas
                                            ----------------------------------
Component         log P           P    phi     Initial       Final       Delta

CO2(g)             1.81   6.486e+01  0.654   1.316e+01   1.420e+01   1.040e+00
H2O(g)            -0.77   1.682e-01  0.191   3.133e-02   3.682e-02   5.491e-03

-----------------------------Solution composition------------------------------

	Elements           Molality       Moles

	C                 1.378e+00   1.377e+00

----------------------------Description of solution----------------------------

                                       pH  =   3.104      Charge balance
                                       pe  =   4.000      Adjusted to redox equilibrium
      Specific Conductance (µS/cm,  25°C)  = 281
                          Density (g/cm³)  =   1.01216
                               Volume (L)  =   1.04721
                        Viscosity (mPa s)  =   0.98333
                        Activity of water  =   0.976
                 Ionic strength (mol/kgw)  =   8.246e-04
                       Mass of water (kg)  =   9.993e-01
                 Total alkalinity (eq/kg)  =   1.218e-09
                       Total CO2 (mol/kg)  =   1.378e+00
                         Temperature (°C)  =  25.00
                           Pressure (atm)  = 65.03
                  Electrical balance (eq)  =  -1.217e-09
 Percent error, 100*(Cat-|An|)/(Cat+|An|)  =  -0.00
                               Iterations  =  11
                         Gamma iterations  =   2
                      Osmotic coefficient  =   0.98156
                         Density of water  =   0.99992
                                  Total H  = 1.109388e+02
                                  Total O  = 5.822321e+01

----------------------------Distribution of species----------------------------

                                                    MacInnes  MacInnes
                                MacInnes       Log       Log       Log    mole V
   Species          Molality    Activity  Molality  Activity     Gamma   cm³/mol

   H+              8.246e-04   7.873e-04    -3.084    -3.104    -0.020      0.00
   OH-             1.355e-11   1.329e-11   -10.868   -10.877    -0.008     -3.87
   H2O             5.551e+01   9.759e-01     1.744    -0.011     0.000     18.02
C(4)          1.378e+00
   CO2             1.377e+00   1.327e+00     0.139     0.123    -0.016     34.72
   HCO3-           8.246e-04   8.086e-04    -3.084    -3.092    -0.008     23.66
   CO3-2           5.640e-11   5.060e-11   -10.249   -10.296    -0.047     -4.31

------------------------------Saturation indices-------------------------------

  Phase               SI** log IAP   log K(298 K,  65 atm)

  CO2(g)            1.63      0.12   -1.50  CO2	 Pressure  64.9 atm, phi 0.654
  H2O(g)           -1.49     -0.01    1.48  H2O	 Pressure   0.2 atm, phi 0.191

**For a gas, SI = log10(fugacity). Fugacity = pressure * phi / 1 atm.
  For ideal gases, phi = 1.

Reaction step 16.

Using solution 1.	pH 7 charge
Using gas phase 6.	
Using reaction 1.	

Reaction 1.	

	  1.038e+00 moles of the following reaction have been added:

	                 Relative
	Reactant            moles

	CO2                  1.00000

	                 Relative
	Element             moles
	C                    1.00000
	O                    2.00000

-----------------------------------Gas phase-----------------------------------

Total pressure: 67.74      atmospheres          (Peng-Robinson calculation)
    Gas volume:   1.00e+00 liters
  Molar volume:   6.55e-02 liters/mole
   P * Vm / RT:  0.18123  (Compressibility Factor Z) 

                                                        Moles in gas
                                            ----------------------------------
Component         log P           P    phi     Initial       Final       Delta

CO2(g)             1.83   6.755e+01  0.633   1.420e+01   1.523e+01   1.034e+00
H2O(g)            -0.72   1.897e-01  0.170   3.682e-02   4.277e-02   5.954e-03

-----------------------------Solution composition------------------------------

	Elements           Molality       Moles

	C                 1.383e+00   1.382e+00

----------------------------Description of solution----------------------------

                                       pH  =   3.102      Charge balance
                                       pe  =   4.000      Adjusted to redox equilibrium
      Specific Conductance (µS/cm,  25°C)  = 282
                          Density (g/cm³)  =   1.01232
                               Volume (L)  =   1.04714
                        Viscosity (mPa s)  =   0.98363
                        Activity of water  =   0.976
                 Ionic strength (mol/kgw)  =   8.273e-04
                       Mass of water (kg)  =   9.992e-01
                 Total alkalinity (eq/kg)  =   1.219e-09
                       Total CO2 (mol/kg)  =   1.383e+00
                         Temperature (°C)  =  25.00
                           Pressure (atm)  = 67.74
                  Electrical balance (eq)  =  -1.218e-09
 Percent error, 100*(Cat-|An|)/(Cat+|An|)  =  -0.00
                               Iterations  =  15
                         Gamma iterations  =   2
                      Osmotic coefficient  =   0.98149
                         Density of water  =   1.00004
                                  Total H  = 1.109269e+02
                                  Total O  = 5.822663e+01

----------------------------Distribution of species----------------------------

                                                    MacInnes  MacInnes
                                MacInnes       Log       Log       Log    mole V
   Species          Molality    Activity  Molality  Activity     Gamma   cm³/mol

   H+              8.273e-04   7.898e-04    -3.082    -3.102    -0.020      0.00
   OH-             1.354e-11   1.327e-11   -10.869   -10.877    -0.008     -3.86
   H2O             5.551e+01   9.758e-01     1.744    -0.011     0.000     18.02
C(4)          1.383e+00
   CO2             1.382e+00   1.332e+00     0.140     0.124    -0.016     34.72
   HCO3-           8.273e-04   8.113e-04    -3.082    -3.091    -0.008     23.67
   CO3-2           5.658e-11   5.076e-11   -10.247   -10.294    -0.047     -4.29

------------------------------Saturation indices-------------------------------

  Phase               SI** log IAP   log K(298 K,  68 atm)

  CO2(g)            1.63      0.12   -1.51  CO2	 Pressure  67.5 atm, phi 0.633
  H2O(g)           -1.49     -0.01    1.48  H2O	 Pressure   0.2 atm, phi 0.170

**For a gas, SI = log10(fugacity). Fugacity = pressure * phi / 1 atm.
  For ideal gases, phi = 1.

Reaction step 17.

Using solution 1.	pH 7 charge
Using gas phase 6.	
Using reaction 1.	

Reaction 1.	

	  1.038e+00 moles of the following reaction have been added:

	                 Relative
	Reactant            moles

	CO2                  1.00000

	                 Relative
	Element             moles
	C                    1.00000
	O                    2.00000

-----------------------------------Gas phase-----------------------------------

Total pressure: 76.50      atmospheres          (Peng-Robinson calculation)
    Gas volume:   1.00e+00 liters
  Molar volume:   6.13e-02 liters/mole
   P * Vm / RT:  0.19176  (Compressibility Factor Z) 

                                                        Moles in gas
                                            ----------------------------------
Component         log P           P    phi     Initial       Final       Delta

CO2(g)             1.88   7.628e+01  0.573   1.523e+01   1.626e+01   1.024e+00
H2O(g)            -0.64   2.298e-01  0.141   4.277e-02   4.899e-02   6.214e-03

-----------------------------Solution composition------------------------------

	Elements           Molality       Moles

	C                 1.398e+00   1.396e+00

----------------------------Description of solution----------------------------

                                       pH  =   3.098      Charge balance
                                       pe  =   4.000      Adjusted to redox equilibrium
      Specific Conductance (µS/cm,  25°C)  = 285
                          Density (g/cm³)  =   1.01283
                               Volume (L)  =   1.04713
                        Viscosity (mPa s)  =   0.98455
                        Activity of water  =   0.976
                 Ionic strength (mol/kgw)  =   8.359e-04
                       Mass of water (kg)  =   9.991e-01
                 Total alkalinity (eq/kg)  =   1.219e-09
                       Total CO2 (mol/kg)  =   1.398e+00
                         Temperature (°C)  =  25.00
                           Pressure (atm)  = 76.50
                  Electrical balance (eq)  =  -1.218e-09
 Percent error, 100*(Cat-|An|)/(Cat+|An|)  =  -0.00
                               Iterations  =  19
                         Gamma iterations  =   3
                      Osmotic coefficient  =   0.98129
                         Density of water  =   1.00043
                                  Total H  = 1.109145e+02
                                  Total O  = 5.824976e+01

----------------------------Distribution of species----------------------------

                                                    MacInnes  MacInnes
                                MacInnes       Log       Log       Log    mole V
   Species          Molality    Activity  Molality  Activity     Gamma   cm³/mol

   H+              8.359e-04   7.978e-04    -3.078    -3.098    -0.020      0.00
   OH-             1.350e-11   1.324e-11   -10.870   -10.878    -0.008     -3.83
   H2O             5.551e+01   9.756e-01     1.744    -0.011     0.000     18.01
C(4)          1.398e+00
   CO2             1.397e+00   1.345e+00     0.145     0.129    -0.016     34.71
   HCO3-           8.359e-04   8.197e-04    -3.078    -3.086    -0.008     23.70
   CO3-2           5.718e-11   5.128e-11   -10.243   -10.290    -0.047     -4.21

------------------------------Saturation indices-------------------------------

  Phase               SI** log IAP   log K(298 K,  77 atm)

  CO2(g)            1.64      0.13   -1.51  CO2	 Pressure  76.3 atm, phi 0.573
  H2O(g)           -1.49     -0.01    1.48  H2O	 Pressure   0.2 atm, phi 0.141

**For a gas, SI = log10(fugacity). Fugacity = pressure * phi / 1 atm.
  For ideal gases, phi = 1.

Reaction step 18.

Using solution 1.	pH 7 charge
Using gas phase 6.	
Using reaction 1.	

Reaction 1.	

	  1.038e+00 moles of the following reaction have been added:

	                 Relative
	Reactant            moles

	CO2                  1.00000

	                 Relative
	Element             moles
	C                    1.00000
	O                    2.00000

-----------------------------------Gas phase-----------------------------------

Total pressure: 89.77      atmospheres          (Peng-Robinson calculation)
    Gas volume:   1.00e+00 liters
  Molar volume:   5.77e-02 liters/mole
   P * Vm / RT:  0.21169  (Compressibility Factor Z) 

                                                        Moles in gas
                                            ----------------------------------
Component         log P           P    phi     Initial       Final       Delta

CO2(g)             1.95   8.948e+01  0.505   1.626e+01   1.728e+01   1.019e+00
H2O(g)            -0.54   2.878e-01  0.114   4.899e-02   5.556e-02   6.576e-03

-----------------------------Solution composition------------------------------

	Elements           Molality       Moles

	C                 1.417e+00   1.416e+00

----------------------------Description of solution----------------------------

                                       pH  =   3.092      Charge balance
                                       pe  =   4.000      Adjusted to redox equilibrium
      Specific Conductance (µS/cm,  25°C)  = 289
                          Density (g/cm³)  =   1.01359
                               Volume (L)  =   1.04708
                        Viscosity (mPa s)  =   0.98576
                        Activity of water  =   0.975
                 Ionic strength (mol/kgw)  =   8.481e-04
                       Mass of water (kg)  =   9.990e-01
                 Total alkalinity (eq/kg)  =   1.219e-09
                       Total CO2 (mol/kg)  =   1.417e+00
                         Temperature (°C)  =  25.00
                           Pressure (atm)  = 89.77
                  Electrical balance (eq)  =  -1.218e-09
 Percent error, 100*(Cat-|An|)/(Cat+|An|)  =  -0.00
                               Iterations  =  21
                         Gamma iterations  =   3
                      Osmotic coefficient  =   0.98103
                         Density of water  =   1.00103
                                  Total H  = 1.109013e+02
                                  Total O  = 5.828224e+01

----------------------------Distribution of species----------------------------

                                                    MacInnes  MacInnes
                                MacInnes       Log       Log       Log    mole V
   Species          Molality    Activity  Molality  Activity     Gamma   cm³/mol

   H+              8.481e-04   8.091e-04    -3.072    -3.092    -0.020      0.00
   OH-             1.346e-11   1.320e-11   -10.871   -10.879    -0.008     -3.79
   H2O             5.551e+01   9.752e-01     1.744    -0.011     0.000     18.00
C(4)          1.417e+00
   CO2             1.416e+00   1.364e+00     0.151     0.135    -0.016     34.70
   HCO3-           8.481e-04   8.317e-04    -3.072    -3.080    -0.008     23.74
   CO3-2           5.809e-11   5.206e-11   -10.236   -10.283    -0.048     -4.09

------------------------------Saturation indices-------------------------------

  Phase               SI** log IAP   log K(298 K,  90 atm)

  CO2(g)            1.65      0.13   -1.52  CO2	 Pressure  89.5 atm, phi 0.505
  H2O(g)           -1.49     -0.01    1.47  H2O	 Pressure   0.3 atm, phi 0.114

**For a gas, SI = log10(fugacity). Fugacity = pressure * phi / 1 atm.
  For ideal gases, phi = 1.

Reaction step 19.

Using solution 1.	pH 7 charge
Using gas phase 6.	
Using reaction 1.	

Reaction 1.	

	  1.038e+00 moles of the following reaction have been added:

	                 Relative
	Reactant            moles

	CO2                  1.00000

	                 Relative
	Element             moles
	C                    1.00000
	O                    2.00000

-----------------------------------Gas phase-----------------------------------

Total pressure: 108.65      atmospheres          (Peng-Robinson calculation)
    Gas volume:   1.00e+00 liters
  Molar volume:   5.45e-02 liters/mole
   P * Vm / RT:  0.24197  (Compressibility Factor Z) 

                                                        Moles in gas
                                            ----------------------------------
Component         log P           P    phi     Initial       Final       Delta

CO2(g)             2.03   1.083e+02  0.435   1.728e+01   1.829e+01   1.014e+00
H2O(g)            -0.43   3.696e-01  0.090   5.556e-02   6.243e-02   6.863e-03

-----------------------------Solution composition------------------------------

	Elements           Molality       Moles

	C                 1.442e+00   1.440e+00

----------------------------Description of solution----------------------------

                                       pH  =   3.084      Charge balance
                                       pe  =   4.000      Adjusted to redox equilibrium
      Specific Conductance (µS/cm,  25°C)  = 294
                          Density (g/cm³)  =   1.01464
                               Volume (L)  =   1.04694
                        Viscosity (mPa s)  =   0.98726
                        Activity of water  =   0.975
                 Ionic strength (mol/kgw)  =   8.647e-04
                       Mass of water (kg)  =   9.989e-01
                 Total alkalinity (eq/kg)  =   1.219e-09
                       Total CO2 (mol/kg)  =   1.442e+00
                         Temperature (°C)  =  25.00
                           Pressure (atm)  = 108.65
                  Electrical balance (eq)  =  -1.218e-09
 Percent error, 100*(Cat-|An|)/(Cat+|An|)  =  -0.00
                               Iterations  =  25
                         Gamma iterations  =   3
                      Osmotic coefficient  =   0.98070
                         Density of water  =   1.00187
                                  Total H  = 1.108876e+02
                                  Total O  = 5.832434e+01

----------------------------Distribution of species----------------------------

                                                    MacInnes  MacInnes
                                MacInnes       Log       Log       Log    mole V
   Species          Molality    Activity  Molality  Activity     Gamma   cm³/mol

   H+              8.647e-04   8.245e-04    -3.063    -3.084    -0.021      0.00
   OH-             1.343e-11   1.317e-11   -10.872   -10.881    -0.009     -3.72
   H2O             5.551e+01   9.748e-01     1.744    -0.011     0.000     17.98
C(4)          1.442e+00
   CO2             1.441e+00   1.386e+00     0.159     0.142    -0.017     34.68
   HCO3-           8.647e-04   8.479e-04    -3.063    -3.072    -0.009     23.80
   CO3-2           5.939e-11   5.319e-11   -10.226   -10.274    -0.048     -3.92

------------------------------Saturation indices-------------------------------

  Phase               SI** log IAP   log K(298 K, 109 atm)

  CO2(g)            1.67      0.14   -1.53  CO2	 Pressure 108.3 atm, phi 0.435
  H2O(g)           -1.48     -0.01    1.47  H2O	 Pressure   0.4 atm, phi 0.090

**For a gas, SI = log10(fugacity). Fugacity = pressure * phi / 1 atm.
  For ideal gases, phi = 1.

Reaction step 20.

Using solution 1.	pH 7 charge
Using gas phase 6.	
Using reaction 1.	

Reaction 1.	

	  1.038e+00 moles of the following reaction have been added:

	                 Relative
	Reactant            moles

	CO2                  1.00000

	                 Relative
	Element             moles
	C                    1.00000
	O                    2.00000

-----------------------------------Gas phase-----------------------------------

Total pressure: 134.50      atmospheres          (Peng-Robinson calculation)
    Gas volume:   1.00e+00 liters
  Molar volume:   5.16e-02 liters/mole
   P * Vm / RT:  0.28383  (Compressibility Factor Z) 

                                                        Moles in gas
                                            ----------------------------------
Component         log P           P    phi     Initial       Final       Delta

CO2(g)             2.13   1.340e+02  0.372   1.829e+01   1.930e+01   1.009e+00
H2O(g)            -0.32   4.825e-01  0.070   6.243e-02   6.948e-02   7.053e-03

-----------------------------Solution composition------------------------------

	Elements           Molality       Moles

	C                 1.472e+00   1.470e+00

----------------------------Description of solution----------------------------

                                       pH  =   3.073      Charge balance
                                       pe  =   4.000      Adjusted to redox equilibrium
      Specific Conductance (µS/cm,  25°C)  = 301
                          Density (g/cm³)  =   1.01604
                               Volume (L)  =   1.04665
                        Viscosity (mPa s)  =   0.98906
                        Activity of water  =   0.974
                 Ionic strength (mol/kgw)  =   8.864e-04
                       Mass of water (kg)  =   9.987e-01
                 Total alkalinity (eq/kg)  =   1.220e-09
                       Total CO2 (mol/kg)  =   1.472e+00
                         Temperature (°C)  =  25.00
                           Pressure (atm)  = 134.50
                  Electrical balance (eq)  =  -1.218e-09
 Percent error, 100*(Cat-|An|)/(Cat+|An|)  =  -0.00
                               Iterations  =  25
                         Gamma iterations  =   3
                      Osmotic coefficient  =   0.98030
                         Density of water  =   1.00302
                                  Total H  = 1.108735e+02
                                  Total O  = 5.837626e+01

----------------------------Distribution of species----------------------------

                                                    MacInnes  MacInnes
                                MacInnes       Log       Log       Log    mole V
   Species          Molality    Activity  Molality  Activity     Gamma   cm³/mol

   H+              8.864e-04   8.447e-04    -3.052    -3.073    -0.021      0.00
   OH-             1.340e-11   1.313e-11   -10.873   -10.882    -0.009     -3.63
   H2O             5.551e+01   9.743e-01     1.744    -0.011     0.000     17.96
C(4)          1.472e+00
   CO2             1.471e+00   1.414e+00     0.168     0.150    -0.017     34.65
   HCO3-           8.864e-04   8.691e-04    -3.052    -3.061    -0.009     23.87
   CO3-2           6.120e-11   5.476e-11   -10.213   -10.262    -0.048     -3.69

------------------------------Saturation indices-------------------------------

  Phase               SI** log IAP   log K(298 K, 135 atm)

  CO2(g)            1.70      0.15   -1.55  CO2	 Pressure 134.0 atm, phi 0.372
  H2O(g)           -1.47     -0.01    1.46  H2O	 Pressure   0.5 atm, phi 0.070

**For a gas, SI = log10(fugacity). Fugacity = pressure * phi / 1 atm.
  For ideal gases, phi = 1.

Reaction step 21.

Using solution 1.	pH 7 charge
Using gas phase 6.	
Using reaction 1.	

Reaction 1.	

	  1.038e+00 moles of the following reaction have been added:

	                 Relative
	Reactant            moles

	CO2                  1.00000

	                 Relative
	Element             moles
	C                    1.00000
	O                    2.00000

-----------------------------------Gas phase-----------------------------------

Total pressure: 168.96      atmospheres          (Peng-Robinson calculation)
    Gas volume:   1.00e+00 liters
  Molar volume:   4.91e-02 liters/mole
   P * Vm / RT:  0.33886  (Compressibility Factor Z) 

                                                        Moles in gas
                                            ----------------------------------
Component         log P           P    phi     Initial       Final       Delta

CO2(g)             2.23   1.683e+02  0.318   1.930e+01   2.030e+01   1.004e+00
H2O(g)            -0.20   6.351e-01  0.054   6.948e-02   7.660e-02   7.123e-03

-----------------------------Solution composition------------------------------

	Elements           Molality       Moles

	C                 1.506e+00   1.504e+00

----------------------------Description of solution----------------------------

                                       pH  =   3.060      Charge balance
                                       pe  =   4.000      Adjusted to redox equilibrium
      Specific Conductance (µS/cm,  25°C)  = 311
                          Density (g/cm³)  =   1.01785
                               Volume (L)  =   1.04615
                        Viscosity (mPa s)  =   0.99117
                        Activity of water  =   0.974
                 Ionic strength (mol/kgw)  =   9.143e-04
                       Mass of water (kg)  =   9.986e-01
                 Total alkalinity (eq/kg)  =   1.220e-09
                       Total CO2 (mol/kg)  =   1.506e+00
                         Temperature (°C)  =  25.00
                           Pressure (atm)  = 168.96
                  Electrical balance (eq)  =  -1.218e-09
 Percent error, 100*(Cat-|An|)/(Cat+|An|)  =  -0.00
                               Iterations  =  27
                         Gamma iterations  =   3
                      Osmotic coefficient  =   0.97984
[...]
                                  Total O  = 5.860618e+01

----------------------------Distribution of species----------------------------

                                                    MacInnes  MacInnes
                                MacInnes       Log       Log       Log    mole V
   Species          Molality    Activity  Molality  Activity     Gamma   cm³/mol

   H+              7.351e-04   6.915e-04    -3.134    -3.160    -0.027      0.00
   OH-             6.287e-09   6.168e-09    -8.202    -8.210    -0.008    -13.30
   H2O             5.551e+01   9.687e-01     1.744    -0.014     0.000     18.94
C(4)          2.107e+00
   CO2             2.106e+00   1.523e+00     0.324     0.183    -0.141     41.03
   HCO3-           7.592e-04   7.449e-04    -3.120    -3.128    -0.008     24.07
   CO3-2           8.988e-11   7.945e-11   -10.046   -10.100    -0.054     -7.45

------------------------------Saturation indices-------------------------------

  Phase               SI** log IAP   log K(423 K, 674 atm)

  CO2(g)            2.60      0.18   -2.42  CO2	 Pressure 637.2 atm, phi 0.627
  H2O(g)            0.80     -0.01   -0.82  H2O	 Pressure  36.8 atm, phi 0.173

**For a gas, SI = log10(fugacity). Fugacity = pressure * phi / 1 atm.
  For ideal gases, phi = 1.

Reaction step 21.

Using solution 1.	pH 7 charge
Using gas phase 6.	
Using reaction 1.	

Reaction 1.	

	  1.000e+00 moles of the following reaction have been added:

	                 Relative
	Reactant            moles

	CO2                  1.00000

	                 Relative
	Element             moles
	C                    1.00000
	O                    2.00000

-----------------------------------Gas phase-----------------------------------

Total pressure: 754.04      atmospheres          (Peng-Robinson calculation)
    Gas volume:   1.00e+00 liters
  Molar volume:   5.03e-02 liters/mole
   P * Vm / RT:  1.09187  (Compressibility Factor Z) 

                                                        Moles in gas
                                            ----------------------------------
Component         log P           P    phi     Initial       Final       Delta

CO2(g)             2.85   7.135e+02  0.633   1.793e+01   1.882e+01   8.869e-01
H2O(g)             1.61   4.055e+01  0.164   1.036e+00   1.069e+00   3.383e-02

-----------------------------Solution composition------------------------------

	Elements           Molality       Moles

	C                 2.224e+00   2.181e+00

----------------------------Description of solution----------------------------

                                       pH  =   3.139      Charge balance
                                       pe  =   4.000      Adjusted to redox equilibrium
      Specific Conductance (µS/cm, 150°C)  = 538
                          Density (g/cm³)  =   0.96498
                               Volume (L)  =   1.11579
                        Viscosity (mPa s)  =   0.20737
                        Activity of water  =   0.967
                 Ionic strength (mol/kgw)  =   7.859e-04
                       Mass of water (kg)  =   9.807e-01
                 Total alkalinity (eq/kg)  =   2.406e-05
                       Total CO2 (mol/kg)  =   2.224e+00
                         Temperature (°C)  = 150.00
                           Pressure (atm)  = 754.04
                  Electrical balance (eq)  =  -2.360e-05
 Percent error, 100*(Cat-|An|)/(Cat+|An|)  =  -1.53
                               Iterations  =  68
                         Gamma iterations  =   6
                      Osmotic coefficient  =   0.82885
                         Density of water  =   0.95487
                                  Total H  = 1.088736e+02
                                  Total O  = 5.879864e+01

----------------------------Distribution of species----------------------------

                                                    MacInnes  MacInnes
                                MacInnes       Log       Log       Log    mole V
   Species          Molality    Activity  Molality  Activity     Gamma   cm³/mol

   H+              7.739e-04   7.265e-04    -3.111    -3.139    -0.027      0.00
   OH-             6.443e-09   6.324e-09    -8.191    -8.199    -0.008    -13.44
   H2O             5.551e+01   9.673e-01     1.744    -0.014     0.000     18.87
C(4)          2.224e+00
   CO2             2.223e+00   1.578e+00     0.347     0.198    -0.149     40.69
   HCO3-           7.979e-04   7.832e-04    -3.098    -3.106    -0.008     24.48
   CO3-2           9.557e-11   8.441e-11   -10.020   -10.074    -0.054     -6.45

------------------------------Saturation indices-------------------------------

  Phase               SI** log IAP   log K(423 K, 754 atm)

  CO2(g)            2.65      0.20   -2.46  CO2	 Pressure 713.5 atm, phi 0.633
  H2O(g)            0.82     -0.01   -0.84  H2O	 Pressure  40.5 atm, phi 0.164

**For a gas, SI = log10(fugacity). Fugacity = pressure * phi / 1 atm.
  For ideal gases, phi = 1.

Reaction step 22.

Using solution 1.	pH 7 charge
Using gas phase 6.	
Using reaction 1.	

Reaction 1.	

	  1.000e+00 moles of the following reaction have been added:

	                 Relative
	Reactant            moles

	CO2                  1.00000

	                 Relative
	Element             moles
	C                    1.00000
	O                    2.00000

-----------------------------------Gas phase-----------------------------------

Total pressure: 845.10      atmospheres          (Peng-Robinson calculation)
    Gas volume:   1.00e+00 liters
  Molar volume:   4.81e-02 liters/mole
   P * Vm / RT:  1.17048  (Compressibility Factor Z) 

                                                        Moles in gas
                                            ----------------------------------
Component         log P           P    phi     Initial       Final       Delta

CO2(g)             2.90   8.005e+02  0.645   1.882e+01   1.970e+01   8.775e-01
H2O(g)             1.65   4.457e+01  0.156   1.069e+00   1.097e+00   2.710e-02

-----------------------------Solution composition------------------------------

	Elements           Molality       Moles

	C                 2.350e+00   2.303e+00

----------------------------Description of solution----------------------------

                                       pH  =   3.116      Charge balance
                                       pe  =   4.000      Adjusted to redox equilibrium
      Specific Conductance (µS/cm, 150°C)  = 561
                          Density (g/cm³)  =   0.96995
                               Volume (L)  =   1.11513
                        Viscosity (mPa s)  =   0.21003
                        Activity of water  =   0.966
                 Ionic strength (mol/kgw)  =   8.288e-04
                       Mass of water (kg)  =   9.802e-01
                 Total alkalinity (eq/kg)  =   2.408e-05
                       Total CO2 (mol/kg)  =   2.350e+00
                         Temperature (°C)  = 150.00
                           Pressure (atm)  = 845.10
                  Electrical balance (eq)  =  -2.360e-05
 Percent error, 100*(Cat-|An|)/(Cat+|An|)  =  -1.45
                               Iterations  =  76
                         Gamma iterations  =   6
                      Osmotic coefficient  =   0.81915
                         Density of water  =   0.95888
                                  Total H  = 1.088194e+02
                                  Total O  = 5.901662e+01

----------------------------Distribution of species----------------------------

                                                    MacInnes  MacInnes
                                MacInnes       Log       Log       Log    mole V
   Species          Molality    Activity  Molality  Activity     Gamma   cm³/mol

   H+              8.168e-04   7.653e-04    -3.088    -3.116    -0.028      0.00
   OH-             6.656e-09   6.536e-09    -8.177    -8.185    -0.008    -13.59
   H2O             5.551e+01   9.659e-01     1.744    -0.015     0.000     18.79
C(4)          2.350e+00
   CO2             2.349e+00   1.636e+00     0.371     0.214    -0.157     40.32
   HCO3-           8.409e-04   8.257e-04    -3.075    -3.083    -0.008     24.91
   CO3-2           1.022e-10   9.021e-11    -9.990   -10.045    -0.054     -5.37

------------------------------Saturation indices-------------------------------

  Phase               SI** log IAP   log K(423 K, 845 atm)

  CO2(g)            2.71      0.21   -2.50  CO2	 Pressure 800.5 atm, phi 0.645
  H2O(g)            0.84     -0.02   -0.86  H2O	 Pressure  44.6 atm, phi 0.156

**For a gas, SI = log10(fugacity). Fugacity = pressure * phi / 1 atm.
  For ideal gases, phi = 1.

Reaction step 23.

Using solution 1.	pH 7 charge
Using gas phase 6.	
Using reaction 1.	

Reaction 1.	

	  1.000e+00 moles of the following reaction have been added:

	                 Relative
	Reactant            moles

	CO2                  1.00000

	                 Relative
	Element             moles
	C                    1.00000
	O                    2.00000

-----------------------------------Gas phase-----------------------------------

Total pressure: 948.55      atmospheres          (Peng-Robinson calculation)
    Gas volume:   1.00e+00 liters
  Molar volume:   4.61e-02 liters/mole
   P * Vm / RT:  1.26006  (Compressibility Factor Z) 

                                                        Moles in gas
                                            ----------------------------------
Component         log P           P    phi     Initial       Final       Delta

CO2(g)             2.95   8.997e+02  0.663   1.970e+01   2.056e+01   8.665e-01
H2O(g)             1.69   4.883e+01  0.150   1.097e+00   1.116e+00   1.957e-02

-----------------------------Solution composition------------------------------

	Elements           Molality       Moles

	C                 2.487e+00   2.437e+00

----------------------------Description of solution----------------------------

                                       pH  =   3.092      Charge balance
                                       pe  =   4.000      Adjusted to redox equilibrium
      Specific Conductance (µS/cm, 150°C)  = 586
                          Density (g/cm³)  =   0.97547
                               Volume (L)  =   1.11449
                        Viscosity (mPa s)  =   0.21303
                        Activity of water  =   0.964
                 Ionic strength (mol/kgw)  =   8.766e-04
                       Mass of water (kg)  =   9.799e-01
                 Total alkalinity (eq/kg)  =   2.409e-05
                       Total CO2 (mol/kg)  =   2.487e+00
                         Temperature (°C)  = 150.00
                           Pressure (atm)  = 948.55
                  Electrical balance (eq)  =  -2.360e-05
 Percent error, 100*(Cat-|An|)/(Cat+|An|)  =  -1.37
                               Iterations  =  82
                         Gamma iterations  =   6
                      Osmotic coefficient  =   0.80859
                         Density of water  =   0.96332
                                  Total H  = 1.087802e+02
                                  Total O  = 5.926405e+01

----------------------------Distribution of species----------------------------

                                                    MacInnes  MacInnes
                                MacInnes       Log       Log       Log    mole V
   Species          Molality    Activity  Molality  Activity     Gamma   cm³/mol

   H+              8.645e-04   8.082e-04    -3.063    -3.092    -0.029      0.00
   OH-             6.942e-09   6.821e-09    -8.158    -8.166    -0.008    -13.76
   H2O             5.551e+01   9.644e-01     1.744    -0.016     0.000     18.70
C(4)          2.487e+00
   CO2             2.486e+00   1.695e+00     0.396     0.229    -0.166     39.93
   HCO3-           8.886e-04   8.730e-04    -3.051    -3.059    -0.008     25.37
   CO3-2           1.100e-10   9.703e-11    -9.958   -10.013    -0.055     -4.23

------------------------------Saturation indices-------------------------------

  Phase               SI** log IAP   log K(423 K, 949 atm)

  CO2(g)            2.78      0.23   -2.55  CO2	 Pressure 899.7 atm, phi 0.663
  H2O(g)            0.86     -0.02   -0.88  H2O	 Pressure  48.8 atm, phi 0.150

**For a gas, SI = log10(fugacity). Fugacity = pressure * phi / 1 atm.
  For ideal gases, phi = 1.

Reaction step 24.

Using solution 1.	pH 7 charge
Using gas phase 6.	
Using reaction 1.	

Reaction 1.	

	  1.000e+00 moles of the following reaction have been added:

	                 Relative
	Reactant            moles

	CO2                  1.00000

	                 Relative
	Element             moles
	C                    1.00000
	O                    2.00000

-----------------------------------Gas phase-----------------------------------

Total pressure: 1065.88      atmospheres          (Peng-Robinson calculation)
    Gas volume:   1.00e+00 liters
  Molar volume:   4.44e-02 liters/mole
   P * Vm / RT:  1.36160  (Compressibility Factor Z) 

                                                        Moles in gas
                                            ----------------------------------
Component         log P           P    phi     Initial       Final       Delta

CO2(g)             3.01   1.013e+03  0.690   2.056e+01   2.142e+01   8.537e-01
H2O(g)             1.73   5.331e+01  0.146   1.116e+00   1.127e+00   1.137e-02

-----------------------------Solution composition------------------------------

	Elements           Molality       Moles

	C                 2.637e+00   2.583e+00

----------------------------Description of solution----------------------------

                                       pH  =   3.068      Charge balance
                                       pe  =   4.000      Adjusted to redox equilibrium
      Specific Conductance (µS/cm, 150°C)  = 613
                          Density (g/cm³)  =   0.98155
                               Volume (L)  =   1.11393
                        Viscosity (mPa s)  =   0.21639
                        Activity of water  =   0.963
                 Ionic strength (mol/kgw)  =   9.296e-04
                       Mass of water (kg)  =   9.797e-01
                 Total alkalinity (eq/kg)  =   2.409e-05
                       Total CO2 (mol/kg)  =   2.637e+00
                         Temperature (°C)  = 150.00
                           Pressure (atm)  = 1065.88
                  Electrical balance (eq)  =  -2.360e-05
 Percent error, 100*(Cat-|An|)/(Cat+|An|)  =  -1.30
                               Iterations  = 101
                         Gamma iterations  =   7
                      Osmotic coefficient  =   0.79706
                         Density of water  =   0.96820
                                  Total H  = 1.087575e+02
                                  Total O  = 5.954538e+01

----------------------------Distribution of species----------------------------

                                                    MacInnes  MacInnes
                                MacInnes       Log       Log       Log    mole V
   Species          Molality    Activity  Molality  Activity     Gamma   cm³/mol

   H+              9.176e-04   8.557e-04    -3.037    -3.068    -0.030      0.00
   OH-             7.321e-09   7.197e-09    -8.135    -8.143    -0.007    -13.94
   H2O             5.551e+01   9.628e-01     1.744    -0.016     0.000     18.61
C(4)          2.637e+00
   CO2             2.636e+00   1.756e+00     0.421     0.245    -0.176     39.52
   HCO3-           9.417e-04   9.257e-04    -3.026    -3.034    -0.007     25.86
   CO3-2           1.192e-10   1.050e-10    -9.924    -9.979    -0.055     -3.02

------------------------------Saturation indices-------------------------------

  Phase               SI** log IAP   log K(423 K, 1066 atm)

  CO2(g)            2.84      0.24   -2.60  CO2	 Pressure 1012.6 atm, phi 0.690
  H2O(g)            0.89     -0.02   -0.91  H2O	 Pressure  53.3 atm, phi 0.146

**For a gas, SI = log10(fugacity). Fugacity = pressure * phi / 1 atm.
  For ideal gases, phi = 1.

Reaction step 25.

Using solution 1.	pH 7 charge
Using gas phase 6.	
Using reaction 1.	

Reaction 1.	

	  1.000e+00 moles of the following reaction have been added:

	                 Relative
	Reactant            moles

	CO2                  1.00000

	                 Relative
	Element             moles
	C                    1.00000
	O                    2.00000

-----------------------------------Gas phase-----------------------------------

Total pressure: 1198.62      atmospheres          (Peng-Robinson calculation)
    Gas volume:   1.00e+00 liters
  Molar volume:   4.28e-02 liters/mole
   P * Vm / RT:  1.47609  (Compressibility Factor Z) 

                                                        Moles in gas
                                            ----------------------------------
Component         log P           P    phi     Initial       Final       Delta

CO2(g)             3.06   1.141e+03  0.727   2.142e+01   2.226e+01   8.385e-01
H2O(g)             1.76   5.793e+01  0.143   1.127e+00   1.130e+00   2.680e-03

-----------------------------Solution composition------------------------------

	Elements           Molality       Moles

	C                 2.802e+00   2.745e+00

----------------------------Description of solution----------------------------

                                       pH  =   3.042      Charge balance
                                       pe  =   4.000      Adjusted to redox equilibrium
      Specific Conductance (µS/cm, 150°C)  = 642
                          Density (g/cm³)  =   0.98823
                               Volume (L)  =   1.11354
                        Viscosity (mPa s)  =   0.22017
                        Activity of water  =   0.961
                 Ionic strength (mol/kgw)  =   9.885e-04
                       Mass of water (kg)  =   9.796e-01
                 Total alkalinity (eq/kg)  =   2.409e-05
                       Total CO2 (mol/kg)  =   2.802e+00
                         Temperature (°C)  = 150.00
                           Pressure (atm)  = 1198.62
                  Electrical balance (eq)  =  -2.360e-05
 Percent error, 100*(Cat-|An|)/(Cat+|An|)  =  -1.22
                               Iterations  = 120
                         Gamma iterations  =   8
                      Osmotic coefficient  =   0.78436
                         Density of water  =   0.97353
                                  Total H  = 1.087522e+02
                                  Total O  = 5.986573e+01

----------------------------Distribution of species----------------------------

                                                    MacInnes  MacInnes
                                MacInnes       Log       Log       Log    mole V
   Species          Molality    Activity  Molality  Activity     Gamma   cm³/mol

   H+              9.765e-04   9.083e-04    -3.010    -3.042    -0.031      0.00
   OH-             7.819e-09   7.692e-09    -8.107    -8.114    -0.007    -14.15
   H2O             5.551e+01   9.612e-01     1.744    -0.017     0.000     18.51
C(4)          2.802e+00
   CO2             2.801e+00   1.819e+00     0.447     0.260    -0.187     39.09
   HCO3-           1.001e-03   9.843e-04    -3.000    -3.007    -0.007     26.37
   CO3-2           1.300e-10   1.145e-10    -9.886    -9.941    -0.055     -1.76

------------------------------Saturation indices-------------------------------

  Phase               SI** log IAP   log K(423 K, 1199 atm)

  CO2(g)            2.92      0.26   -2.66  CO2	 Pressure 1140.7 atm, phi 0.727
  H2O(g)            0.92     -0.02   -0.94  H2O	 Pressure  57.9 atm, phi 0.143

**For a gas, SI = log10(fugacity). Fugacity = pressure * phi / 1 atm.
  For ideal gases, phi = 1.

------------------
End of simulation.
------------------

------------------------------------
Reading input data for simulation 8.
------------------------------------

