WARNING: Database file from DATABASE keyword is used; command line argument ignored.
   Input file: co2_t30
  Output file: co2_t30.out
Database file: ../database/phreeqc.dat

------------------
Reading data base.
------------------

	SOLUTION_MASTER_SPECIES
	SOLUTION_SPECIES
	PHASES
	GAS_BINARY_PARAMETERS
	EXCHANGE_MASTER_SPECIES
	EXCHANGE_SPECIES
	SURFACE_MASTER_SPECIES
	SURFACE_SPECIES
	MEAN_GAMMAS
	RATES
	END
------------------------------------
Reading input data for simulation 1.
------------------------------------

	DATABASE ../database/phreeqc.dat
	SELECTED_OUTPUT 101
	    file                 co2_t30_101.sel
	USER_PUNCH 101
	    headings Mu SC
	    start
	10 PUNCH STR_F$(MU, 20, 12)
	20 PUNCH STR_F$(SC, 20, 10)
	    end
	SOLUTION 1
	 pH 7 charge
	 temp 30
	GAS_PHASE 1
	     fixed_volume
	     CO2(g) 0
		 H2O(g) 0
	REACTION
	 CO2 1
	 5*0.1 4*0.2 15*1
	INCREMENTAL_REACTIONS true
	USER_GRAPH
	 -plot_csv_file CO2_t30.dat
	 -axis_titles "CO2 pressure / bar" "CO2 solubility at 30 oC / (mol/kgw)"
	 -connect_simulations false
	 10 graph_x pr_p("CO2(g)") * 1.013
	 20 graph_y tot("C")
	END
-------------------------------------------
Beginning of initial solution calculations.
-------------------------------------------

Initial solution 1.	

-----------------------------Solution composition------------------------------

	Elements           Molality       Moles

	Pure water     

----------------------------Description of solution----------------------------

                                       pH  =   6.917      Charge balance
                                       pe  =   4.000    
      Specific Conductance (µS/cm,  30°C)  = 0
                          Density (g/cm³)  =   0.99564
                               Volume (L)  =   1.00437
                        Viscosity (mPa s)  =   0.79722
                        Activity of water  =   1.000
                 Ionic strength (mol/kgw)  =   1.212e-07
                       Mass of water (kg)  =   1.000e+00
                 Total alkalinity (eq/kg)  =  -3.054e-19
                         Temperature (°C)  =  30.00
                  Electrical balance (eq)  =   3.054e-19
 Percent error, 100*(Cat-|An|)/(Cat+|An|)  =   0.00
                               Iterations  =   3
                                  Total H  = 1.110124e+02
                                  Total O  = 5.550622e+01

----------------------------Distribution of species----------------------------

                                               Log       Log       Log    mole V
   Species          Molality    Activity  Molality  Activity     Gamma   cm³/mol

   H+              1.212e-07   1.212e-07    -6.916    -6.917    -0.000      0.00
   OH-             1.212e-07   1.212e-07    -6.916    -6.917    -0.000     -3.98
   H2O             5.551e+01   1.000e+00     1.744    -0.000     0.000     18.09
H(0)          1.979e-25
   H2              9.896e-26   9.896e-26   -25.005   -25.005     0.000     15.34
O(0)          0.000e+00
   O2              0.000e+00   0.000e+00   -40.726   -40.726     0.000     30.77

------------------------------Saturation indices-------------------------------

  Phase               SI** log IAP   log K(303 K,   1 atm)

  H2(g)           -21.90    -25.00   -3.11  H2
  H2O(g)           -1.38     -0.00    1.38  H2O
  O2(g)           -37.80    -40.73   -2.93  O2

**For a gas, SI = log10(fugacity). Fugacity = pressure * phi / 1 atm.
  For ideal gases, phi = 1.

-----------------------------------------
Beginning of batch-reaction calculations.
-----------------------------------------

Reaction step 1.

Using solution 1.	
Using gas phase 1.	
Using reaction 1.	

Reaction 1.	

	  1.000e-01 moles of the following reaction have been added:

	                 Relative
	Reactant            moles

	CO2                  1.00000

	                 Relative
	Element             moles
	C                    1.00000
	O                    2.00000

-----------------------------------Gas phase-----------------------------------

Total pressure:  1.47      atmospheres          (Peng-Robinson calculation)
    Gas volume:   1.00e+00 liters
  Molar volume:   1.68e+01 liters/mole
   P * Vm / RT:  0.99209  (Compressibility Factor Z) 

                                                        Moles in gas
                                            ----------------------------------
Component         log P           P    phi     Initial       Final       Delta

CO2(g)             0.15   1.422e+00  0.992   0.000e+00   5.764e-02   5.764e-02
H2O(g)            -1.37   4.256e-02  0.986   0.000e+00   1.725e-03   1.725e-03

-----------------------------Solution composition------------------------------

	Elements           Molality       Moles

	C                 4.236e-02   4.236e-02

----------------------------Description of solution----------------------------

                                       pH  =   3.852      Charge balance
                                       pe  =  13.535      Adjusted to redox equilibrium
      Specific Conductance (µS/cm,  30°C)  = 59
                          Density (g/cm³)  =   0.99605
                               Volume (L)  =   1.00580
                        Viscosity (mPa s)  =   0.79953
                        Activity of water  =   0.999
                 Ionic strength (mol/kgw)  =   1.426e-04
                       Mass of water (kg)  =   1.000e+00
                 Total alkalinity (eq/kg)  =  -7.699e-13
                       Total CO2 (mol/kg)  =   4.236e-02
                         Temperature (°C)  =  30.00
                           Pressure (atm)  =  1.47
                  Electrical balance (eq)  =   7.699e-13
 Percent error, 100*(Cat-|An|)/(Cat+|An|)  =   0.00
                               Iterations  =  32
                                  Total H  = 1.110090e+02
                                  Total O  = 5.558922e+01

----------------------------Distribution of species----------------------------

                                               Log       Log       Log    mole V
   Species          Molality    Activity  Molality  Activity     Gamma   cm³/mol

   H+              1.426e-04   1.407e-04    -3.846    -3.852    -0.006      0.00
   OH-             1.058e-10   1.043e-10    -9.976    -9.982    -0.006     -3.97
   H2O             5.551e+01   9.993e-01     1.744    -0.000     0.000     18.09
C(-4)         0.000e+00
   CH4             0.000e+00   0.000e+00  -116.751  -116.751     0.000     35.87
C(4)          4.236e-02
   CO2             4.215e-02   4.215e-02    -1.375    -1.375     0.000     35.02
   HCO3-           1.426e-04   1.407e-04    -3.846    -3.852    -0.006     24.86
   (CO2)2          3.677e-05   3.677e-05    -4.435    -4.435     0.000     69.21
   CO3-2           5.449e-11   5.156e-11   -10.264   -10.288    -0.024     -4.39
H(0)          2.272e-38
   H2              1.136e-38   1.136e-38   -37.945   -37.945     0.000     15.34
O(0)          2.849e-15
   O2              1.424e-15   1.424e-15   -14.846   -14.846     0.000     30.77

------------------------------Saturation indices-------------------------------

  Phase               SI** log IAP   log K(303 K,   1 atm)

  CH4(g)         -113.91   -116.75   -2.84  CH4
  CO2(g)            0.15     -1.38   -1.52  CO2	 Pressure   1.4 atm, phi 0.992
  H2(g)           -34.84    -37.94   -3.11  H2
  H2O(g)           -1.38     -0.00    1.38  H2O	 Pressure   0.0 atm, phi 0.986
  O2(g)           -11.92    -14.85   -2.93  O2

**For a gas, SI = log10(fugacity). Fugacity = pressure * phi / 1 atm.
  For ideal gases, phi = 1.

Reaction step 2.

Using solution 1.	
Using gas phase 1.	
Using reaction 1.	

Reaction 1.	

	  1.000e-01 moles of the following reaction have been added:

	                 Relative
	Reactant            moles

	CO2                  1.00000

	                 Relative
	Element             moles
	C                    1.00000
	O                    2.00000

-----------------------------------Gas phase-----------------------------------

Total pressure:  2.89      atmospheres          (Peng-Robinson calculation)
    Gas volume:   1.00e+00 liters
  Molar volume:   8.49e+00 liters/mole
   P * Vm / RT:  0.98453  (Compressibility Factor Z) 

                                                        Moles in gas
                                            ----------------------------------
Component         log P           P    phi     Initial       Final       Delta

CO2(g)             0.45   2.843e+00  0.985   5.764e-02   1.161e-01   5.844e-02
H2O(g)            -1.37   4.313e-02  0.974   1.725e-03   1.761e-03   3.649e-05

-----------------------------Solution composition------------------------------

	Elements           Molality       Moles

	C                 8.393e-02   8.392e-02

----------------------------Description of solution----------------------------

                                       pH  =   3.703      Charge balance
                                       pe  =  13.669      Adjusted to redox equilibrium
      Specific Conductance (µS/cm,  30°C)  = 83
                          Density (g/cm³)  =   0.99650
                               Volume (L)  =   1.00719
                        Viscosity (mPa s)  =   0.80176
                        Activity of water  =   0.999
                 Ionic strength (mol/kgw)  =   2.013e-04
                       Mass of water (kg)  =   1.000e+00
                 Total alkalinity (eq/kg)  =  -1.492e-12
                       Total CO2 (mol/kg)  =   8.393e-02
                         Temperature (°C)  =  30.00
                           Pressure (atm)  =  2.89
                  Electrical balance (eq)  =   1.492e-12
 Percent error, 100*(Cat-|An|)/(Cat+|An|)  =   0.00
                               Iterations  =  23
                                  Total H  = 1.110089e+02
                                  Total O  = 5.567230e+01

----------------------------Distribution of species----------------------------

                                               Log       Log       Log    mole V
   Species          Molality    Activity  Molality  Activity     Gamma   cm³/mol

   H+              2.013e-04   1.981e-04    -3.696    -3.703    -0.007      0.00
   OH-             7.537e-11   7.414e-11   -10.123   -10.130    -0.007     -3.96
   H2O             5.551e+01   9.986e-01     1.744    -0.001     0.000     18.09
C(-4)         0.000e+00
   CH4             0.000e+00   0.000e+00  -116.343  -116.343     0.000     35.87
C(4)          8.393e-02
   CO2             8.344e-02   8.344e-02    -1.079    -1.079     0.000     35.02
   HCO3-           2.013e-04   1.980e-04    -3.696    -3.703    -0.007     24.87
   (CO2)2          1.441e-04   1.441e-04    -3.841    -3.841     0.000     69.21
   CO3-2           5.514e-11   5.164e-11   -10.259   -10.287    -0.028     -4.37
H(0)          2.421e-38
   H2              1.210e-38   1.210e-38   -37.917   -37.917     0.000     15.34
O(0)          2.502e-15
   O2              1.251e-15   1.251e-15   -14.903   -14.903     0.000     30.77

------------------------------Saturation indices-------------------------------

  Phase               SI** log IAP   log K(303 K,   3 atm)

  CH4(g)         -113.50   -116.34   -2.85  CH4
  CO2(g)            0.45     -1.08   -1.53  CO2	 Pressure   2.8 atm, phi 0.985
  H2(g)           -34.81    -37.92   -3.11  H2
  H2O(g)           -1.38     -0.00    1.38  H2O	 Pressure   0.0 atm, phi 0.974
  O2(g)           -11.98    -14.90   -2.93  O2

**For a gas, SI = log10(fugacity). Fugacity = pressure * phi / 1 atm.
  For ideal gases, phi = 1.

Reaction step 3.

Using solution 1.	
Using gas phase 1.	
Using reaction 1.	

Reaction 1.	

	  1.000e-01 moles of the following reaction have been added:

	                 Relative
	Reactant            moles

	CO2                  1.00000

	                 Relative
	Element             moles
	C                    1.00000
	O                    2.00000

-----------------------------------Gas phase-----------------------------------

Total pressure:  4.30      atmospheres          (Peng-Robinson calculation)
    Gas volume:   1.00e+00 liters
  Molar volume:   5.65e+00 liters/mole
   P * Vm / RT:  0.97693  (Compressibility Factor Z) 

                                                        Moles in gas
                                            ----------------------------------
Component         log P           P    phi     Initial       Final       Delta

CO2(g)             0.63   4.260e+00  0.977   1.161e-01   1.753e-01   5.921e-02
H2O(g)            -1.36   4.371e-02  0.961   1.761e-03   1.799e-03   3.759e-05

-----------------------------Solution composition------------------------------

	Elements           Molality       Moles

	C                 1.247e-01   1.247e-01

----------------------------Description of solution----------------------------

                                       pH  =   3.617      Charge balance
                                       pe  =   1.949      Adjusted to redox equilibrium
      Specific Conductance (µS/cm,  30°C)  = 101
                          Density (g/cm³)  =   0.99693
                               Volume (L)  =   1.00855
                        Viscosity (mPa s)  =   0.80395
                        Activity of water  =   0.998
                 Ionic strength (mol/kgw)  =   2.457e-04
                       Mass of water (kg)  =   1.000e+00
                 Total alkalinity (eq/kg)  =  -1.526e-13
                       Total CO2 (mol/kg)  =   1.247e-01
                         Temperature (°C)  =  30.00
                           Pressure (atm)  =  4.30
                  Electrical balance (eq)  =   1.526e-13
 Percent error, 100*(Cat-|An|)/(Cat+|An|)  =   0.00
                               Iterations  =  31
                                  Total H  = 1.110088e+02
                                  Total O  = 5.575385e+01

----------------------------Distribution of species----------------------------

                                               Log       Log       Log    mole V
   Species          Molality    Activity  Molality  Activity     Gamma   cm³/mol

   H+              2.457e-04   2.414e-04    -3.610    -3.617    -0.008      0.00
   OH-             6.198e-11   6.086e-11   -10.208   -10.216    -0.008     -3.96
   H2O             5.551e+01   9.979e-01     1.744    -0.001     0.000     18.09
C(-4)         1.901e-22
   CH4             1.901e-22   1.901e-22   -21.721   -21.721     0.000     35.87
C(4)          1.247e-01
   CO2             1.238e-01   1.238e-01    -0.907    -0.907     0.000     35.02
   (CO2)2          3.175e-04   3.175e-04    -3.498    -3.498     0.000     69.21
   HCO3-           2.457e-04   2.413e-04    -3.610    -3.617    -0.008     24.87
   CO3-2           5.560e-11   5.172e-11   -10.255   -10.286    -0.031     -4.35
H(0)          9.913e-15
   H2              4.956e-15   4.957e-15   -14.305   -14.305     0.000     15.34
O(0)          0.000e+00
   O2              0.000e+00   0.000e+00   -62.128   -62.128     0.000     30.76

------------------------------Saturation indices-------------------------------

  Phase               SI** log IAP   log K(303 K,   4 atm)

  CH4(g)          -18.87    -21.72   -2.85  CH4
  CO2(g)            0.62     -0.91   -1.53  CO2	 Pressure   4.3 atm, phi 0.977
  H2(g)           -11.20    -14.30   -3.11  H2
  H2O(g)           -1.38     -0.00    1.38  H2O	 Pressure   0.0 atm, phi 0.961
  O2(g)           -59.20    -62.13   -2.93  O2

**For a gas, SI = log10(fugacity). Fugacity = pressure * phi / 1 atm.
  For ideal gases, phi = 1.

Reaction step 4.

Using solution 1.	
Using gas phase 1.	
Using reaction 1.	

Reaction 1.	

	  1.000e-01 moles of the following reaction have been added:

	                 Relative
	Reactant            moles

	CO2                  1.00000

	                 Relative
	Element             moles
	C                    1.00000
	O                    2.00000

-----------------------------------Gas phase-----------------------------------

Total pressure:  5.72      atmospheres          (Peng-Robinson calculation)
    Gas volume:   1.00e+00 liters
  Molar volume:   4.22e+00 liters/mole
   P * Vm / RT:  0.96929  (Compressibility Factor Z) 

                                                        Moles in gas
                                            ----------------------------------
Component         log P           P    phi     Initial       Final       Delta

CO2(g)             0.75   5.673e+00  0.970   1.753e-01   2.353e-01   5.998e-02
H2O(g)            -1.35   4.430e-02  0.949   1.799e-03   1.837e-03   3.873e-05

-----------------------------Solution composition------------------------------

	Elements           Molality       Moles

	C                 1.647e-01   1.647e-01

----------------------------Description of solution----------------------------

                                       pH  =   3.557      Charge balance
                                       pe  =  13.858      Adjusted to redox equilibrium
      Specific Conductance (µS/cm,  30°C)  = 116
                          Density (g/cm³)  =   0.99735
                               Volume (L)  =   1.00989
                        Viscosity (mPa s)  =   0.80610
                        Activity of water  =   0.997
                 Ionic strength (mol/kgw)  =   2.827e-04
                       Mass of water (kg)  =   1.000e+00
                 Total alkalinity (eq/kg)  =   7.934e-13
                       Total CO2 (mol/kg)  =   1.647e-01
                         Temperature (°C)  =  30.00
                           Pressure (atm)  =  5.72
                  Electrical balance (eq)  =  -7.933e-13
 Percent error, 100*(Cat-|An|)/(Cat+|An|)  =  -0.00
                               Iterations  =  26
                                  Total H  = 1.110088e+02
                                  Total O  = 5.583384e+01

----------------------------Distribution of species----------------------------

                                               Log       Log       Log    mole V
   Species          Molality    Activity  Molality  Activity     Gamma   cm³/mol

   H+              2.827e-04   2.774e-04    -3.549    -3.557    -0.008      0.00
   OH-             5.404e-11   5.299e-11   -10.267   -10.276    -0.008     -3.95
   H2O             5.551e+01   9.972e-01     1.744    -0.001     0.000     18.09
C(-4)         0.000e+00
   CH4             0.000e+00   0.000e+00  -116.393  -116.393     0.000     35.87
C(4)          1.647e-01
   CO2             1.634e-01   1.634e-01    -0.787    -0.787     0.000     35.02
   (CO2)2          5.524e-04   5.524e-04    -3.258    -3.258     0.000     69.20
   HCO3-           2.827e-04   2.773e-04    -3.549    -3.557    -0.008     24.88
   CO3-2           5.597e-11   5.180e-11   -10.252   -10.286    -0.034     -4.33
H(0)          1.986e-38
   H2              9.928e-39   9.928e-39   -38.003   -38.003     0.000     15.34
O(0)          3.698e-15
   O2              1.849e-15   1.849e-15   -14.733   -14.733     0.000     30.76

------------------------------Saturation indices-------------------------------

  Phase               SI** log IAP   log K(303 K,   6 atm)

  CH4(g)         -113.55   -116.39   -2.85  CH4
  CO2(g)            0.74     -0.79   -1.53  CO2	 Pressure   5.7 atm, phi 0.970
  H2(g)           -34.89    -38.00   -3.11  H2
  H2O(g)           -1.38     -0.00    1.38  H2O	 Pressure   0.0 atm, phi 0.949
  O2(g)           -11.80    -14.73   -2.93  O2

**For a gas, SI = log10(fugacity). Fugacity = pressure * phi / 1 atm.
  For ideal gases, phi = 1.

Reaction step 5.

Using solution 1.	
Using gas phase 1.	
Using reaction 1.	

Reaction 1.	

	  1.000e-01 moles of the following reaction have been added:

	                 Relative
	Reactant            moles

	CO2                  1.00000

	                 Relative
	Element             moles
	C                    1.00000
	O                    2.00000

-----------------------------------Gas phase-----------------------------------

Total pressure:  7.13      atmospheres          (Peng-Robinson calculation)
    Gas volume:   1.00e+00 liters
  Molar volume:   3.36e+00 liters/mole
   P * Vm / RT:  0.96162  (Compressibility Factor Z) 

                                                        Moles in gas
                                            ----------------------------------
Component         log P           P    phi     Initial       Final       Delta

CO2(g)             0.85   7.081e+00  0.963   2.353e-01   2.960e-01   6.076e-02
H2O(g)            -1.35   4.491e-02  0.936   1.837e-03   1.877e-03   3.990e-05

-----------------------------Solution composition------------------------------

	Elements           Molality       Moles

	C                 2.040e-01   2.040e-01

----------------------------Description of solution----------------------------

                                       pH  =   3.511      Charge balance
                                       pe  =  13.985      Adjusted to redox equilibrium
      Specific Conductance (µS/cm,  30°C)  = 128
                          Density (g/cm³)  =   0.99777
                               Volume (L)  =   1.01120
                        Viscosity (mPa s)  =   0.80820
                        Activity of water  =   0.997
                 Ionic strength (mol/kgw)  =   3.148e-04
                       Mass of water (kg)  =   1.000e+00
                 Total alkalinity (eq/kg)  =  -7.764e-14
                       Total CO2 (mol/kg)  =   2.040e-01
                         Temperature (°C)  =  30.00
                           Pressure (atm)  =  7.13
                  Electrical balance (eq)  =   7.764e-14
 Percent error, 100*(Cat-|An|)/(Cat+|An|)  =   0.00
                               Iterations  =  23
                                  Total H  = 1.110087e+02
                                  Total O  = 5.591228e+01

----------------------------Distribution of species----------------------------

                                               Log       Log       Log    mole V
   Species          Molality    Activity  Molality  Activity     Gamma   cm³/mol

   H+              3.148e-04   3.086e-04    -3.502    -3.511    -0.009      0.00
   OH-             4.865e-11   4.766e-11   -10.313   -10.322    -0.009     -3.95
   H2O             5.551e+01   9.965e-01     1.744    -0.002     0.000     18.09
C(-4)         0.000e+00
   CH4             0.000e+00   0.000e+00  -116.942  -116.942     0.000     35.87
C(4)          2.040e-01
   CO2             2.020e-01   2.020e-01    -0.695    -0.695     0.000     35.02
   (CO2)2          8.445e-04   8.446e-04    -3.073    -3.073     0.000     69.20
   HCO3-           3.148e-04   3.085e-04    -3.502    -3.511    -0.009     24.88
   CO3-2           5.629e-11   5.189e-11   -10.250   -10.285    -0.035     -4.31
H(0)          1.372e-38
   H2              6.858e-39   6.858e-39   -38.164   -38.164     0.000     15.34
O(0)          7.729e-15
   O2              3.864e-15   3.865e-15   -14.413   -14.413     0.000     30.76

------------------------------Saturation indices-------------------------------

  Phase               SI** log IAP   log K(303 K,   7 atm)

  CH4(g)         -114.09   -116.94   -2.85  CH4
  CO2(g)            0.83     -0.69   -1.53  CO2	 Pressure   7.1 atm, phi 0.963
  H2(g)           -35.05    -38.16   -3.11  H2
  H2O(g)           -1.38     -0.00    1.37  H2O	 Pressure   0.0 atm, phi 0.936
  O2(g)           -11.48    -14.41   -2.93  O2

**For a gas, SI = log10(fugacity). Fugacity = pressure * phi / 1 atm.
  For ideal gases, phi = 1.

Reaction step 6.

Using solution 1.	
Using gas phase 1.	
Using reaction 1.	

Reaction 1.	

	  2.000e-01 moles of the following reaction have been added:

	                 Relative
	Reactant            moles

	CO2                  1.00000

	                 Relative
	Element             moles
	C                    1.00000
	O                    2.00000

-----------------------------------Gas phase-----------------------------------

Total pressure:  9.93      atmospheres          (Peng-Robinson calculation)
    Gas volume:   1.00e+00 liters
  Molar volume:   2.37e+00 liters/mole
   P * Vm / RT:  0.94617  (Compressibility Factor Z) 

                                                        Moles in gas
                                            ----------------------------------
Component         log P           P    phi     Initial       Final       Delta

CO2(g)             0.99   9.883e+00  0.948   2.960e-01   4.199e-01   1.239e-01
H2O(g)            -1.34   4.615e-02  0.912   1.877e-03   1.961e-03   8.346e-05

-----------------------------Solution composition------------------------------

	Elements           Molality       Moles

	C                 2.801e-01   2.801e-01

----------------------------Description of solution----------------------------

                                       pH  =   3.442      Charge balance
                                       pe  =  14.002      Adjusted to redox equilibrium
      Specific Conductance (µS/cm,  30°C)  = 150
                          Density (g/cm³)  =   0.99858
                               Volume (L)  =   1.01374
                        Viscosity (mPa s)  =   0.81227
                        Activity of water  =   0.995
                 Ionic strength (mol/kgw)  =   3.694e-04
                       Mass of water (kg)  =   1.000e+00
                 Total alkalinity (eq/kg)  =  -7.029e-13
                       Total CO2 (mol/kg)  =   2.801e-01
                         Temperature (°C)  =  30.00
                           Pressure (atm)  =  9.93
                  Electrical balance (eq)  =   7.029e-13
 Percent error, 100*(Cat-|An|)/(Cat+|An|)  =   0.00
                               Iterations  =  25
                                  Total H  = 1.110085e+02
                                  Total O  = 5.606445e+01

----------------------------Distribution of species----------------------------

                                               Log       Log       Log    mole V
   Species          Molality    Activity  Molality  Activity     Gamma   cm³/mol

   H+              3.694e-04   3.615e-04    -3.433    -3.442    -0.009      0.00
   OH-             4.166e-11   4.074e-11   -10.380   -10.390    -0.010     -3.94
   H2O             5.551e+01   9.953e-01     1.744    -0.002     0.000     18.09
C(-4)         0.000e+00
   CH4             0.000e+00   0.000e+00  -116.395  -116.395     0.000     35.88
C(4)          2.801e-01
   CO2             2.766e-01   2.766e-01    -0.558    -0.558     0.000     35.01
   (CO2)2          1.584e-03   1.584e-03    -2.800    -2.800     0.000     69.19
   HCO3-           3.694e-04   3.613e-04    -3.433    -3.442    -0.010     24.89
   CO3-2           5.685e-11   5.206e-11   -10.245   -10.284    -0.038     -4.28
H(0)          1.735e-38
   H2              8.674e-39   8.675e-39   -38.062   -38.062     0.000     15.34
O(0)          4.805e-15
   O2              2.402e-15   2.403e-15   -14.619   -14.619     0.000     30.75

------------------------------Saturation indices-------------------------------

  Phase               SI** log IAP   log K(303 K,  10 atm)

  CH4(g)         -113.55   -116.40   -2.85  CH4
  CO2(g)            0.97     -0.56   -1.53  CO2	 Pressure   9.9 atm, phi 0.948
  H2(g)           -34.95    -38.06   -3.11  H2
  H2O(g)           -1.38     -0.00    1.37  H2O	 Pressure   0.0 atm, phi 0.912
  O2(g)           -11.69    -14.62   -2.93  O2

**For a gas, SI = log10(fugacity). Fugacity = pressure * phi / 1 atm.
  For ideal gases, phi = 1.

Reaction step 7.

Using solution 1.	
Using gas phase 1.	
Using reaction 1.	

Reaction 1.	

	  2.000e-01 moles of the following reaction have been added:

	                 Relative
	Reactant            moles

	CO2                  1.00000

	                 Relative
	Element             moles
	C                    1.00000
	O                    2.00000

-----------------------------------Gas phase-----------------------------------

Total pressure: 12.71      atmospheres          (Peng-Robinson calculation)
    Gas volume:   1.00e+00 liters
  Molar volume:   1.82e+00 liters/mole
   P * Vm / RT:  0.93059  (Compressibility Factor Z) 

                                                        Moles in gas
                                            ----------------------------------
Component         log P           P    phi     Initial       Final       Delta

CO2(g)             1.10   1.266e+01  0.934   4.199e-01   5.469e-01   1.270e-01
H2O(g)            -1.32   4.744e-02  0.887   1.961e-03   2.049e-03   8.860e-05

-----------------------------Solution composition------------------------------

	Elements           Molality       Moles

	C                 3.531e-01   3.531e-01

----------------------------Description of solution----------------------------

                                       pH  =   3.392      Charge balance
                                       pe  =  14.169      Adjusted to redox equilibrium
      Specific Conductance (µS/cm,  30°C)  = 167
                          Density (g/cm³)  =   0.99935
                               Volume (L)  =   1.01616
                        Viscosity (mPa s)  =   0.81618
                        Activity of water  =   0.994
                 Ionic strength (mol/kgw)  =   4.150e-04
                       Mass of water (kg)  =   1.000e+00
                 Total alkalinity (eq/kg)  =  -1.378e-12
                       Total CO2 (mol/kg)  =   3.531e-01
                         Temperature (°C)  =  30.00
                           Pressure (atm)  = 12.71
                  Electrical balance (eq)  =   1.378e-12
 Percent error, 100*(Cat-|An|)/(Cat+|An|)  =   0.00
                               Iterations  =  25
                                  Total H  = 1.110083e+02
                                  Total O  = 5.621029e+01

----------------------------Distribution of species----------------------------

                                               Log       Log       Log    mole V
   Species          Molality    Activity  Molality  Activity     Gamma   cm³/mol

   H+              4.150e-04   4.057e-04    -3.382    -3.392    -0.010      0.00
   OH-             3.721e-11   3.634e-11   -10.429   -10.440    -0.010     -3.93
   H2O             5.551e+01   9.940e-01     1.744    -0.003     0.000     18.09
C(-4)         0.000e+00
   CH4             0.000e+00   0.000e+00  -117.227  -117.227     0.000     35.88
C(4)          3.531e-01
   CO2             3.477e-01   3.477e-01    -0.459    -0.459     0.000     35.01
   (CO2)2          2.503e-03   2.503e-03    -2.602    -2.602     0.000     69.19
   HCO3-           4.150e-04   4.055e-04    -3.382    -3.392    -0.010     24.90
   CO3-2           5.732e-11   5.222e-11   -10.242   -10.282    -0.040     -4.25
H(0)          1.014e-38
   H2              5.069e-39   5.070e-39   -38.295   -38.295     0.000     15.34
O(0)          1.399e-14
   O2              6.996e-15   6.996e-15   -14.155   -14.155     0.000     30.75

------------------------------Saturation indices-------------------------------

  Phase               SI** log IAP   log K(303 K,  13 atm)

  CH4(g)         -114.37   -117.23   -2.85  CH4
  CO2(g)            1.07     -0.46   -1.53  CO2	 Pressure  12.7 atm, phi 0.934
  H2(g)           -35.18    -38.30   -3.11  H2
  H2O(g)           -1.38     -0.00    1.37  H2O	 Pressure   0.0 atm, phi 0.887
  O2(g)           -11.22    -14.16   -2.93  O2

**For a gas, SI = log10(fugacity). Fugacity = pressure * phi / 1 atm.
  For ideal gases, phi = 1.

Reaction step 8.

Using solution 1.	
Using gas phase 1.	
Using reaction 1.	

Reaction 1.	

	  2.000e-01 moles of the following reaction have been added:

	                 Relative
	Reactant            moles

	CO2                  1.00000

	                 Relative
	Element             moles
	C                    1.00000
	O                    2.00000

-----------------------------------Gas phase-----------------------------------

Total pressure: 15.46      atmospheres          (Peng-Robinson calculation)
    Gas volume:   1.00e+00 liters
  Molar volume:   1.47e+00 liters/mole
   P * Vm / RT:  0.91490  (Compressibility Factor Z) 

                                                        Moles in gas
                                            ----------------------------------
Component         log P           P    phi     Initial       Final       Delta

CO2(g)             1.19   1.541e+01  0.920   5.469e-01   6.772e-01   1.302e-01
H2O(g)            -1.31   4.878e-02  0.864   2.049e-03   2.143e-03   9.406e-05

-----------------------------Solution composition------------------------------

	Elements           Molality       Moles

	C                 4.228e-01   4.228e-01

----------------------------Description of solution----------------------------

                                       pH  =   3.353      Charge balance
                                       pe  =  14.225      Adjusted to redox equilibrium
      Specific Conductance (µS/cm,  30°C)  = 182
                          Density (g/cm³)  =   1.00009
                               Volume (L)  =   1.01848
                        Viscosity (mPa s)  =   0.81990
                        Activity of water  =   0.993
                 Ionic strength (mol/kgw)  =   4.545e-04
                       Mass of water (kg)  =   1.000e+00
                 Total alkalinity (eq/kg)  =  -1.740e-12
                       Total CO2 (mol/kg)  =   4.228e-01
                         Temperature (°C)  =  30.00
                           Pressure (atm)  = 15.46
                  Electrical balance (eq)  =   1.740e-12
 Percent error, 100*(Cat-|An|)/(Cat+|An|)  =   0.00
                               Iterations  =  26
                                  Total H  = 1.110081e+02
                                  Total O  = 5.634972e+01

----------------------------Distribution of species----------------------------

                                               Log       Log       Log    mole V
   Species          Molality    Activity  Molality  Activity     Gamma   cm³/mol

   H+              4.545e-04   4.438e-04    -3.342    -3.353    -0.010      0.00
   OH-             3.409e-11   3.326e-11   -10.467   -10.478    -0.011     -3.92
   H2O             5.551e+01   9.929e-01     1.744    -0.003     0.000     18.08
C(-4)         0.000e+00
   CH4             0.000e+00   0.000e+00  -117.291  -117.291     0.000     35.88
C(4)          4.228e-01
   CO2             4.152e-01   4.153e-01    -0.382    -0.382     0.000     35.01
   (CO2)2          3.571e-03   3.571e-03    -2.447    -2.447     0.000     69.18
   HCO3-           4.545e-04   4.436e-04    -3.342    -3.353    -0.011     24.91
   CO3-2           5.774e-11   5.239e-11   -10.239   -10.281    -0.042     -4.22
H(0)          9.335e-39
   H2              4.667e-39   4.668e-39   -38.331   -38.331     0.000     15.34
O(0)          1.642e-14
   O2              8.210e-15   8.211e-15   -14.086   -14.086     0.000     30.75

------------------------------Saturation indices-------------------------------

  Phase               SI** log IAP   log K(303 K,  15 atm)

  CH4(g)         -114.44   -117.29   -2.85  CH4
  CO2(g)            1.15     -0.38   -1.53  CO2	 Pressure  15.4 atm, phi 0.920
  H2(g)           -35.22    -38.33   -3.11  H2
  H2O(g)           -1.38     -0.00    1.37  H2O	 Pressure   0.0 atm, phi 0.864
  O2(g)           -11.15    -14.09   -2.93  O2

**For a gas, SI = log10(fugacity). Fugacity = pressure * phi / 1 atm.
  For ideal gases, phi = 1.

Reaction step 9.

Using solution 1.	
Using gas phase 1.	
Using reaction 1.	

Reaction 1.	

	  2.000e-01 moles of the following reaction have been added:

	                 Relative
	Reactant            moles

	CO2                  1.00000

	                 Relative
	Element             moles
	C                    1.00000
	O                    2.00000

-----------------------------------Gas phase-----------------------------------

Total pressure: 18.18      atmospheres          (Peng-Robinson calculation)
    Gas volume:   1.00e+00 liters
  Molar volume:   1.23e+00 liters/mole
   P * Vm / RT:  0.89911  (Compressibility Factor Z) 

                                                        Moles in gas
                                            ----------------------------------
Component         log P           P    phi     Initial       Final       Delta

CO2(g)             1.26   1.813e+01  0.907   6.772e-01   8.106e-01   1.335e-01
H2O(g)            -1.30   5.017e-02  0.841   2.143e-03   2.243e-03   9.986e-05

-----------------------------Solution composition------------------------------

	Elements           Molality       Moles

	C                 4.894e-01   4.894e-01

----------------------------Description of solution----------------------------

                                       pH  =   3.321      Charge balance
                                       pe  =  14.293      Adjusted to redox equilibrium
      Specific Conductance (µS/cm,  30°C)  = 195
                          Density (g/cm³)  =   1.00080
                               Volume (L)  =   1.02068
                        Viscosity (mPa s)  =   0.82346
                        Activity of water  =   0.992
                 Ionic strength (mol/kgw)  =   4.892e-04
                       Mass of water (kg)  =   1.000e+00
                 Total alkalinity (eq/kg)  =  -2.109e-12
                       Total CO2 (mol/kg)  =   4.894e-01
                         Temperature (°C)  =  30.00
                           Pressure (atm)  = 18.18
                  Electrical balance (eq)  =   2.109e-12
 Percent error, 100*(Cat-|An|)/(Cat+|An|)  =   0.00
                               Iterations  =  26
                                  Total H  = 1.110079e+02
                                  Total O  = 5.648272e+01

----------------------------Distribution of species----------------------------

                                               Log       Log       Log    mole V
   Species          Molality    Activity  Molality  Activity     Gamma   cm³/mol

   H+              4.892e-04   4.774e-04    -3.310    -3.321    -0.011      0.00
   OH-             3.177e-11   3.097e-11   -10.498   -10.509    -0.011     -3.92
   H2O             5.551e+01   9.918e-01     1.744    -0.004     0.000     18.08
C(-4)         0.000e+00
   CH4             0.000e+00   0.000e+00  -117.522  -117.522     0.000     35.89
C(4)          4.894e-01
   CO2             4.794e-01   4.794e-01    -0.319    -0.319     0.000     35.00
   (CO2)2          4.760e-03   4.760e-03    -2.322    -2.322     0.000     69.17
   HCO3-           4.892e-04   4.771e-04    -3.310    -3.321    -0.011     24.92
   CO3-2           5.812e-11   5.255e-11   -10.236   -10.279    -0.044     -4.19
H(0)          7.873e-39
   H2              3.936e-39   3.937e-39   -38.405   -38.405     0.000     15.34
O(0)          2.297e-14
   O2              1.148e-14   1.149e-14   -13.940   -13.940     0.000     30.74

------------------------------Saturation indices-------------------------------

  Phase               SI** log IAP   log K(303 K,  18 atm)

  CH4(g)         -114.67   -117.52   -2.86  CH4
  CO2(g)            1.22     -0.32   -1.54  CO2	 Pressure  18.1 atm, phi 0.907
  H2(g)           -35.29    -38.40   -3.11  H2
  H2O(g)           -1.37     -0.00    1.37  H2O	 Pressure   0.1 atm, phi 0.841
  O2(g)           -11.00    -13.94   -2.94  O2

**For a gas, SI = log10(fugacity). Fugacity = pressure * phi / 1 atm.
  For ideal gases, phi = 1.

Reaction step 10.

Using solution 1.	
Using gas phase 1.	
Using reaction 1.	

Reaction 1.	

	  1.000e+00 moles of the following reaction have been added:

	                 Relative
	Reactant            moles

	CO2                  1.00000

	                 Relative
	Element             moles
	C                    1.00000
	O                    2.00000

-----------------------------------Gas phase-----------------------------------

Total pressure: 31.15      atmospheres          (Peng-Robinson calculation)
    Gas volume:   1.00e+00 liters
  Molar volume:   6.54e-01 liters/mole
   P * Vm / RT:  0.81912  (Compressibility Factor Z) 

                                                        Moles in gas
                                            ----------------------------------
Component         log P           P    phi     Initial       Final       Delta

CO2(g)             1.49   3.109e+01  0.842   8.106e-01   1.526e+00   7.154e-01
H2O(g)            -1.24   5.791e-02  0.732   2.243e-03   2.842e-03   5.986e-04

-----------------------------Solution composition------------------------------

	Elements           Molality       Moles

	C                 7.741e-01   7.740e-01

----------------------------Description of solution----------------------------

                                       pH  =   3.222      Charge balance
                                       pe  =  14.361      Adjusted to redox equilibrium
      Specific Conductance (µS/cm,  30°C)  = 240
                          Density (g/cm³)  =   1.00387
                               Volume (L)  =   1.03003
                        Viscosity (mPa s)  =   0.83864
                        Activity of water  =   0.987
                 Ionic strength (mol/kgw)  =   6.168e-04
                       Mass of water (kg)  =   9.999e-01
                 Total alkalinity (eq/kg)  =  -2.312e-12
                       Total CO2 (mol/kg)  =   7.741e-01
                         Temperature (°C)  =  30.00
                           Pressure (atm)  = 31.15
                  Electrical balance (eq)  =   2.311e-12
 Percent error, 100*(Cat-|An|)/(Cat+|An|)  =   0.00
                               Iterations  =  29
                                  Total H  = 1.110067e+02
                                  Total O  = 5.705141e+01

----------------------------Distribution of species----------------------------

                                               Log       Log       Log    mole V
   Species          Molality    Activity  Molality  Activity     Gamma   cm³/mol

   H+              6.168e-04   6.001e-04    -3.210    -3.222    -0.012      0.00
   OH-             2.551e-11   2.480e-11   -10.593   -10.606    -0.012     -3.88
   H2O             5.551e+01   9.870e-01     1.744    -0.006     0.000     18.07
C(-4)         0.000e+00
   CH4             0.000e+00   0.000e+00  -117.075  -117.075     0.000     35.90
C(4)          7.741e-01
   CO2             7.501e-01   7.502e-01    -0.125    -0.125     0.000     34.99
   (CO2)2          1.166e-02   1.166e-02    -1.933    -1.933     0.000     69.14
   HCO3-           6.168e-04   5.997e-04    -3.210    -3.222    -0.012     24.97
   CO3-2           5.970e-11   5.334e-11   -10.224   -10.273    -0.049     -4.06
H(0)          9.053e-39
   H2              4.527e-39   4.527e-39   -38.344   -38.344     0.000     15.35
O(0)          1.698e-14
   O2              8.489e-15   8.490e-15   -14.071   -14.071     0.000     30.72

------------------------------Saturation indices-------------------------------

  Phase               SI** log IAP   log K(303 K,  31 atm)

  CH4(g)         -114.21   -117.08   -2.86  CH4
  CO2(g)            1.42     -0.12   -1.54  CO2	 Pressure  31.1 atm, phi 0.842
  H2(g)           -35.23    -38.34   -3.12  H2
  H2O(g)           -1.37     -0.01    1.37  H2O	 Pressure   0.1 atm, phi 0.732
  O2(g)           -11.13    -14.07   -2.94  O2

**For a gas, SI = log10(fugacity). Fugacity = pressure * phi / 1 atm.
  For ideal gases, phi = 1.

Reaction step 11.

Using solution 1.	
Using gas phase 1.	
Using reaction 1.	

Reaction 1.	

	  1.000e+00 moles of the following reaction have been added:

	                 Relative
	Reactant            moles

	CO2                  1.00000

	                 Relative
	Element             moles
	C                    1.00000
	O                    2.00000

-----------------------------------Gas phase-----------------------------------

Total pressure: 42.68      atmospheres          (Peng-Robinson calculation)
    Gas volume:   1.00e+00 liters
  Molar volume:   4.31e-01 liters/mole
   P * Vm / RT:  0.73898  (Compressibility Factor Z) 

                                                        Moles in gas
                                            ----------------------------------
Component         log P           P    phi     Initial       Final       Delta

CO2(g)             1.63   4.261e+01  0.787   1.526e+00   2.318e+00   7.919e-01
H2O(g)            -1.17   6.692e-02  0.636   2.842e-03   3.640e-03   7.987e-04

-----------------------------Solution composition------------------------------

	Elements           Molality       Moles

	C                 9.822e-01   9.821e-01

----------------------------Description of solution----------------------------

                                       pH  =   3.170      Charge balance
                                       pe  =  14.468      Adjusted to redox equilibrium
      Specific Conductance (µS/cm,  30°C)  = 267
                          Density (g/cm³)  =   1.00617
                               Volume (L)  =   1.03676
                        Viscosity (mPa s)  =   0.84973
                        Activity of water  =   0.984
                 Ionic strength (mol/kgw)  =   6.965e-04
                       Mass of water (kg)  =   9.999e-01
                 Total alkalinity (eq/kg)  =  -2.424e-12
                       Total CO2 (mol/kg)  =   9.822e-01
                         Temperature (°C)  =  30.00
                           Pressure (atm)  = 42.68
                  Electrical balance (eq)  =   2.424e-12
 Percent error, 100*(Cat-|An|)/(Cat+|An|)  =   0.00
                               Iterations  =  26
                                  Total H  = 1.110052e+02
                                  Total O  = 5.746672e+01

----------------------------Distribution of species----------------------------

                                               Log       Log       Log    mole V
   Species          Molality    Activity  Molality  Activity     Gamma   cm³/mol

   H+              6.965e-04   6.766e-04    -3.157    -3.170    -0.013      0.00
   OH-             2.282e-11   2.214e-11   -10.642   -10.655    -0.013     -3.85
   H2O             5.551e+01   9.836e-01     1.744    -0.007     0.000     18.06
C(-4)         0.000e+00
   CH4             0.000e+00   0.000e+00  -117.423  -117.423     0.000     35.92
C(4)          9.822e-01
   CO2             9.445e-01   9.446e-01    -0.025    -0.025     0.000     34.98
   (CO2)2          1.849e-02   1.849e-02    -1.733    -1.733     0.000     69.12
   HCO3-           6.965e-04   6.760e-04    -3.157    -3.170    -0.013     25.01
   CO3-2           6.090e-11   5.405e-11   -10.215   -10.267    -0.052     -3.95
H(0)          6.963e-39
   H2              3.482e-39   3.482e-39   -38.458   -38.458     0.000     15.36
O(0)          2.817e-14
   O2              1.408e-14   1.408e-14   -13.851   -13.851     0.000     30.70

------------------------------Saturation indices-------------------------------

  Phase               SI** log IAP   log K(303 K,  43 atm)

  CH4(g)         -114.55   -117.42   -2.87  CH4
  CO2(g)            1.53     -0.02   -1.55  CO2	 Pressure  42.6 atm, phi 0.787
  H2(g)           -35.34    -38.46   -3.12  H2
  H2O(g)           -1.37     -0.01    1.36  H2O	 Pressure   0.1 atm, phi 0.636
  O2(g)           -10.90    -13.85   -2.95  O2

**For a gas, SI = log10(fugacity). Fugacity = pressure * phi / 1 atm.
  For ideal gases, phi = 1.

Reaction step 12.

Using solution 1.	
Using gas phase 1.	
Using reaction 1.	

Reaction 1.	

	  1.000e+00 moles of the following reaction have been added:

	                 Relative
	Reactant            moles

	CO2                  1.00000

	                 Relative
	Element             moles
	C                    1.00000
	O                    2.00000

-----------------------------------Gas phase-----------------------------------

Total pressure: 52.31      atmospheres          (Peng-Robinson calculation)
    Gas volume:   1.00e+00 liters
  Molar volume:   3.14e-01 liters/mole
   P * Vm / RT:  0.66099  (Compressibility Factor Z) 

                                                        Moles in gas
                                            ----------------------------------
Component         log P           P    phi     Initial       Final       Delta

CO2(g)             1.72   5.223e+01  0.741   2.318e+00   3.176e+00   8.584e-01
H2O(g)            -1.11   7.708e-02  0.555   3.640e-03   4.688e-03   1.047e-03

-----------------------------Solution composition------------------------------

	Elements           Molality       Moles

	C                 1.124e+00   1.124e+00

----------------------------Description of solution----------------------------

                                       pH  =   3.140      Charge balance
                                       pe  =  14.497      Adjusted to redox equilibrium
      Specific Conductance (µS/cm,  30°C)  = 283
                          Density (g/cm³)  =   1.00780
                               Volume (L)  =   1.04125
                        Viscosity (mPa s)  =   0.85726
                        Activity of water  =   0.981
                 Ionic strength (mol/kgw)  =   7.469e-04
                       Mass of water (kg)  =   9.999e-01
                 Total alkalinity (eq/kg)  =  -2.655e-12
                       Total CO2 (mol/kg)  =   1.124e+00
                         Temperature (°C)  =  30.00
                           Pressure (atm)  = 52.31
                  Electrical balance (eq)  =   2.654e-12
 Percent error, 100*(Cat-|An|)/(Cat+|An|)  =   0.00
                               Iterations  =  23
                                  Total H  = 1.110031e+02
                                  Total O  = 5.774895e+01

----------------------------Distribution of species----------------------------

                                               Log       Log       Log    mole V
   Species          Molality    Activity  Molality  Activity     Gamma   cm³/mol

   H+              7.469e-04   7.250e-04    -3.127    -3.140    -0.013      0.00
   OH-             2.145e-11   2.079e-11   -10.669   -10.682    -0.014     -3.83
   H2O             5.551e+01   9.813e-01     1.744    -0.008     0.000     18.05
C(-4)         0.000e+00
   CH4             0.000e+00   0.000e+00  -117.362  -117.362     0.000     35.93
C(4)          1.124e+00
   CO2             1.075e+00   1.075e+00     0.031     0.032     0.000     34.96
   (CO2)2          2.397e-02   2.397e-02    -1.620    -1.620     0.000     69.09
   HCO3-           7.469e-04   7.243e-04    -3.127    -3.140    -0.013     25.04
   CO3-2           6.182e-11   5.465e-11   -10.209   -10.262    -0.054     -3.86
H(0)          6.957e-39
   H2              3.478e-39   3.479e-39   -38.459   -38.459     0.000     15.36
O(0)          2.781e-14
   O2              1.391e-14   1.391e-14   -13.857   -13.857     0.000     30.68

------------------------------Saturation indices-------------------------------

  Phase               SI** log IAP   log K(303 K,  52 atm)

  CH4(g)         -114.49   -117.36   -2.88  CH4
  CO2(g)            1.59      0.03   -1.56  CO2	 Pressure  52.2 atm, phi 0.741
  H2(g)           -35.34    -38.46   -3.12  H2
  H2O(g)           -1.37     -0.01    1.36  H2O	 Pressure   0.1 atm, phi 0.555
  O2(g)           -10.90    -13.86   -2.95  O2

**For a gas, SI = log10(fugacity). Fugacity = pressure * phi / 1 atm.
  For ideal gases, phi = 1.

Reaction step 13.

Using solution 1.	
Using gas phase 1.	
Using reaction 1.	

Reaction 1.	

	  1.000e+00 moles of the following reaction have been added:

	                 Relative
	Reactant            moles

	CO2                  1.00000

	                 Relative
	Element             moles
	C                    1.00000
	O                    2.00000

-----------------------------------Gas phase-----------------------------------

Total pressure: 59.79      atmospheres          (Peng-Robinson calculation)
    Gas volume:   1.00e+00 liters
  Molar volume:   2.44e-01 liters/mole
   P * Vm / RT:  0.58726  (Compressibility Factor Z) 

                                                        Moles in gas
                                            ----------------------------------
Component         log P           P    phi     Initial       Final       Delta

CO2(g)             1.78   5.970e+01  0.705   3.176e+00   4.087e+00   9.105e-01
H2O(g)            -1.06   8.809e-02  0.487   4.688e-03   6.030e-03   1.342e-03

-----------------------------Solution composition------------------------------

	Elements           Molality       Moles

	C                 1.213e+00   1.213e+00

----------------------------Description of solution----------------------------

                                       pH  =   3.122      Charge balance
                                       pe  =  14.543      Adjusted to redox equilibrium
      Specific Conductance (µS/cm,  30°C)  = 293
                          Density (g/cm³)  =   1.00888
                               Volume (L)  =   1.04401
                        Viscosity (mPa s)  =   0.86202
                        Activity of water  =   0.980
                 Ionic strength (mol/kgw)  =   7.780e-04
                       Mass of water (kg)  =   9.999e-01
                 Total alkalinity (eq/kg)  =  -2.711e-12
                       Total CO2 (mol/kg)  =   1.213e+00
                         Temperature (°C)  =  30.00
                           Pressure (atm)  = 59.79
                  Electrical balance (eq)  =   2.711e-12
 Percent error, 100*(Cat-|An|)/(Cat+|An|)  =   0.00
                               Iterations  =  29
                                  Total H  = 1.110004e+02
                                  Total O  = 5.792655e+01

----------------------------Distribution of species----------------------------

                                               Log       Log       Log    mole V
   Species          Molality    Activity  Molality  Activity     Gamma   cm³/mol

   H+              7.780e-04   7.546e-04    -3.109    -3.122    -0.013      0.00
   OH-             2.072e-11   2.007e-11   -10.684   -10.697    -0.014     -3.81
   H2O             5.551e+01   9.798e-01     1.744    -0.009     0.000     18.05
C(-4)         0.000e+00
   CH4             0.000e+00   0.000e+00  -117.563  -117.563     0.000     35.94
C(4)          1.213e+00
   CO2             1.157e+00   1.157e+00     0.063     0.063     0.000     34.96
   (CO2)2          2.777e-02   2.777e-02    -1.556    -1.556     0.000     69.08
   HCO3-           7.780e-04   7.539e-04    -3.109    -3.123    -0.014     25.06
   CO3-2           6.250e-11   5.512e-11   -10.204   -10.259    -0.055     -3.79
H(0)          6.069e-39
   H2              3.035e-39   3.035e-39   -38.518   -38.518     0.000     15.36
O(0)          3.615e-14
   O2              1.808e-14   1.808e-14   -13.743   -13.743     0.000     30.67

------------------------------Saturation indices-------------------------------

  Phase               SI** log IAP   log K(303 K,  60 atm)

  CH4(g)         -114.68   -117.56   -2.88  CH4
  CO2(g)            1.62      0.06   -1.56  CO2	 Pressure  59.7 atm, phi 0.705
  H2(g)           -35.39    -38.52   -3.12  H2
  H2O(g)           -1.37     -0.01    1.36  H2O	 Pressure   0.1 atm, phi 0.487
  O2(g)           -10.78    -13.74   -2.96  O2

**For a gas, SI = log10(fugacity). Fugacity = pressure * phi / 1 atm.
  For ideal gases, phi = 1.

Reaction step 14.

Using solution 1.	
Using gas phase 1.	
Using reaction 1.	

Reaction 1.	

	  1.000e+00 moles of the following reaction have been added:

	                 Relative
	Reactant            moles

	CO2                  1.00000

	                 Relative
	Element             moles
	C                    1.00000
	O                    2.00000

-----------------------------------Gas phase-----------------------------------

Total pressure: 65.14      atmospheres          (Peng-Robinson calculation)
    Gas volume:   1.00e+00 liters
  Molar volume:   1.98e-01 liters/mole
   P * Vm / RT:  0.51931  (Compressibility Factor Z) 

                                                        Moles in gas
                                            ----------------------------------
Component         log P           P    phi     Initial       Final       Delta

CO2(g)             1.81   6.504e+01  0.678   4.087e+00   5.035e+00   9.480e-01
H2O(g)            -1.00   9.961e-02  0.432   6.030e-03   7.711e-03   1.681e-03

-----------------------------Solution composition------------------------------

	Elements           Molality       Moles

	C                 1.265e+00   1.265e+00

----------------------------Description of solution----------------------------

                                       pH  =   3.112      Charge balance
                                       pe  =  14.545      Adjusted to redox equilibrium
      Specific Conductance (µS/cm,  30°C)  = 299
                          Density (g/cm³)  =   1.00956
                               Volume (L)  =   1.04555
                        Viscosity (mPa s)  =   0.86479
                        Activity of water  =   0.979
                 Ionic strength (mol/kgw)  =   7.960e-04
                       Mass of water (kg)  =   9.998e-01
                 Total alkalinity (eq/kg)  =  -2.691e-12
                       Total CO2 (mol/kg)  =   1.265e+00
                         Temperature (°C)  =  30.00
                           Pressure (atm)  = 65.14
                  Electrical balance (eq)  =   2.691e-12
 Percent error, 100*(Cat-|An|)/(Cat+|An|)  =   0.00
                               Iterations  =  33
                                  Total H  = 1.109970e+02
                                  Total O  = 5.802893e+01

----------------------------Distribution of species----------------------------

                                               Log       Log       Log    mole V
   Species          Molality    Activity  Molality  Activity     Gamma   cm³/mol

   H+              7.960e-04   7.719e-04    -3.099    -3.112    -0.013      0.00
   OH-             2.034e-11   1.970e-11   -10.692   -10.706    -0.014     -3.80
   H2O             5.551e+01   9.790e-01     1.744    -0.009     0.000     18.04
C(-4)         0.000e+00
   CH4             0.000e+00   0.000e+00  -117.487  -117.486     0.000     35.94
C(4)          1.265e+00
   CO2             1.204e+00   1.205e+00     0.081     0.081     0.000     34.95
   (CO2)2          3.009e-02   3.010e-02    -1.522    -1.521     0.000     69.06
   HCO3-           7.960e-04   7.712e-04    -3.099    -3.113    -0.014     25.07
   CO3-2           6.296e-11   5.546e-11   -10.201   -10.256    -0.055     -3.74
H(0)          6.268e-39
   H2              3.134e-39   3.135e-39   -38.504   -38.504     0.000     15.37
O(0)          3.365e-14
   O2              1.683e-14   1.683e-14   -13.774   -13.774     0.000     30.66

------------------------------Saturation indices-------------------------------

  Phase               SI** log IAP   log K(303 K,  65 atm)

  CH4(g)         -114.60   -117.49   -2.88  CH4
  CO2(g)            1.64      0.08   -1.56  CO2	 Pressure  65.0 atm, phi 0.678
  H2(g)           -35.38    -38.50   -3.13  H2
  H2O(g)           -1.37     -0.01    1.36  H2O	 Pressure   0.1 atm, phi 0.432
  O2(g)           -10.81    -13.77   -2.96  O2

**For a gas, SI = log10(fugacity). Fugacity = pressure * phi / 1 atm.
  For ideal gases, phi = 1.

Reaction step 15.

Using solution 1.	
Using gas phase 1.	
Using reaction 1.	

Reaction 1.	

	  1.000e+00 moles of the following reaction have been added:

	                 Relative
	Reactant            moles

	CO2                  1.00000

	                 Relative
	Element             moles
	C                    1.00000
	O                    2.00000

-----------------------------------Gas phase-----------------------------------

Total pressure: 68.56      atmospheres          (Peng-Robinson calculation)
    Gas volume:   1.00e+00 liters
  Molar volume:   1.66e-01 liters/mole
   P * Vm / RT:  0.45801  (Compressibility Factor Z) 

                                                        Moles in gas
                                            ----------------------------------
Component         log P           P    phi     Initial       Final       Delta

CO2(g)             1.84   6.845e+01  0.661   5.035e+00   6.008e+00   9.728e-01
H2O(g)            -0.95   1.113e-01  0.388   7.711e-03   9.768e-03   2.057e-03

-----------------------------Solution composition------------------------------

	Elements           Molality       Moles

	C                 1.293e+00   1.292e+00

----------------------------Description of solution----------------------------

                                       pH  =   3.107      Charge balance
                                       pe  =  14.570      Adjusted to redox equilibrium
      Specific Conductance (µS/cm,  30°C)  = 302
                          Density (g/cm³)  =   1.00994
                               Volume (L)  =   1.04631
                        Viscosity (mPa s)  =   0.86625
                        Activity of water  =   0.979
                 Ionic strength (mol/kgw)  =   8.056e-04
                       Mass of water (kg)  =   9.998e-01
                 Total alkalinity (eq/kg)  =  -2.718e-12
                       Total CO2 (mol/kg)  =   1.293e+00
                         Temperature (°C)  =  30.00
                           Pressure (atm)  = 68.56
                  Electrical balance (eq)  =   2.717e-12
 Percent error, 100*(Cat-|An|)/(Cat+|An|)  =   0.00
                               Iterations  =  36
                                  Total H  = 1.109929e+02
                                  Total O  = 5.808134e+01

----------------------------Distribution of species----------------------------

                                               Log       Log       Log    mole V
   Species          Molality    Activity  Molality  Activity     Gamma   cm³/mol

   H+              8.056e-04   7.811e-04    -3.094    -3.107    -0.013      0.00
   OH-             2.016e-11   1.951e-11   -10.696   -10.710    -0.014     -3.79
   H2O             5.551e+01   9.785e-01     1.744    -0.009     0.000     18.04
C(-4)         0.000e+00
   CH4             0.000e+00   0.000e+00  -117.634  -117.634     0.000     35.95
C(4)          1.293e+00
   CO2             1.229e+00   1.229e+00     0.090     0.090     0.000     34.95
   (CO2)2          3.135e-02   3.135e-02    -1.504    -1.504     0.000     69.06
   HCO3-           8.056e-04   7.804e-04    -3.094    -3.108    -0.014     25.09
   CO3-2           6.325e-11   5.567e-11   -10.199   -10.254    -0.055     -3.71
H(0)          5.724e-39
   H2              2.862e-39   2.863e-39   -38.543   -38.543     0.000     15.37
O(0)          4.017e-14
   O2              2.009e-14   2.009e-14   -13.697   -13.697     0.000     30.66

------------------------------Saturation indices-------------------------------

  Phase               SI** log IAP   log K(303 K,  69 atm)

  CH4(g)         -114.75   -117.63   -2.89  CH4
  CO2(g)            1.66      0.09   -1.57  CO2	 Pressure  68.4 atm, phi 0.661
  H2(g)           -35.42    -38.54   -3.13  H2
  H2O(g)           -1.36     -0.01    1.36  H2O	 Pressure   0.1 atm, phi 0.388
  O2(g)           -10.73    -13.70   -2.96  O2

**For a gas, SI = log10(fugacity). Fugacity = pressure * phi / 1 atm.
  For ideal gases, phi = 1.

Reaction step 16.

Using solution 1.	
Using gas phase 1.	
Using reaction 1.	

Reaction 1.	

	  1.000e+00 moles of the following reaction have been added:

	                 Relative
	Reactant            moles

	CO2                  1.00000

	                 Relative
	Element             moles
	C                    1.00000
	O                    2.00000

-----------------------------------Gas phase-----------------------------------

Total pressure: 70.39      atmospheres          (Peng-Robinson calculation)
    Gas volume:   1.00e+00 liters
  Molar volume:   1.43e-01 liters/mole
   P * Vm / RT:  0.40376  (Compressibility Factor Z) 

                                                        Moles in gas
                                            ----------------------------------
Component         log P           P    phi     Initial       Final       Delta

CO2(g)             1.85   7.026e+01  0.651   6.008e+00   6.996e+00   9.880e-01
H2O(g)            -0.91   1.229e-01  0.352   9.768e-03   1.224e-02   2.467e-03

-----------------------------Solution composition------------------------------

	Elements           Molality       Moles

	C                 1.305e+00   1.304e+00

----------------------------Description of solution----------------------------

                                       pH  =   3.105      Charge balance
                                       pe  =  14.566      Adjusted to redox equilibrium
      Specific Conductance (µS/cm,  30°C)  = 303
                          Density (g/cm³)  =   1.01012
                               Volume (L)  =   1.04660
                        Viscosity (mPa s)  =   0.86689
                        Activity of water  =   0.978
                 Ionic strength (mol/kgw)  =   8.100e-04
                       Mass of water (kg)  =   9.998e-01
                 Total alkalinity (eq/kg)  =  -2.722e-12
                       Total CO2 (mol/kg)  =   1.305e+00
                         Temperature (°C)  =  30.00
                           Pressure (atm)  = 70.39
                  Electrical balance (eq)  =   2.722e-12
 Percent error, 100*(Cat-|An|)/(Cat+|An|)  =   0.00
                               Iterations  =  43
                                  Total H  = 1.109880e+02
                                  Total O  = 5.810290e+01

----------------------------Distribution of species----------------------------

                                               Log       Log       Log    mole V
   Species          Molality    Activity  Molality  Activity     Gamma   cm³/mol

   H+              8.100e-04   7.853e-04    -3.092    -3.105    -0.013      0.00
   OH-             2.008e-11   1.944e-11   -10.697   -10.711    -0.014     -3.78
   H2O             5.551e+01   9.783e-01     1.744    -0.010     0.000     18.04
C(-4)         0.000e+00
   CH4             0.000e+00   0.000e+00  -117.583  -117.583     0.000     35.95
C(4)          1.305e+00
   CO2             1.240e+00   1.240e+00     0.093     0.094     0.000     34.94
   (CO2)2          3.191e-02   3.191e-02    -1.496    -1.496     0.000     69.05
   HCO3-           8.100e-04   7.845e-04    -3.092    -3.105    -0.014     25.09
   CO3-2           6.340e-11   5.579e-11   -10.198   -10.253    -0.056     -3.69
H(0)          5.878e-39
   H2              2.939e-39   2.940e-39   -38.532   -38.532     0.000     15.37
O(0)          3.801e-14
   O2              1.901e-14   1.901e-14   -13.721   -13.721     0.000     30.65

------------------------------Saturation indices-------------------------------

  Phase               SI** log IAP   log K(303 K,  70 atm)

  CH4(g)         -114.69   -117.58   -2.89  CH4
  CO2(g)            1.66      0.09   -1.57  CO2	 Pressure  70.3 atm, phi 0.651
  H2(g)           -35.40    -38.53   -3.13  H2
  H2O(g)           -1.36     -0.01    1.35  H2O	 Pressure   0.1 atm, phi 0.352
  O2(g)           -10.76    -13.72   -2.96  O2

**For a gas, SI = log10(fugacity). Fugacity = pressure * phi / 1 atm.
  For ideal gases, phi = 1.

Reaction step 17.

Using solution 1.	
Using gas phase 1.	
Using reaction 1.	

Reaction 1.	

	  1.000e+00 moles of the following reaction have been added:

	                 Relative
	Reactant            moles

	CO2                  1.00000

	                 Relative
	Element             moles
	C                    1.00000
	O                    2.00000

-----------------------------------Gas phase-----------------------------------

Total pressure: 71.03      atmospheres          (Peng-Robinson calculation)
    Gas volume:   1.00e+00 liters
  Molar volume:   1.25e-01 liters/mole
   P * Vm / RT:  0.35661  (Compressibility Factor Z) 

                                                        Moles in gas
                                            ----------------------------------
Component         log P           P    phi     Initial       Final       Delta

CO2(g)             1.85   7.090e+01  0.648   6.996e+00   7.992e+00   9.965e-01
H2O(g)            -0.87   1.343e-01  0.322   1.224e-02   1.514e-02   2.908e-03

-----------------------------Solution composition------------------------------

	Elements           Molality       Moles

	C                 1.308e+00   1.308e+00

----------------------------Description of solution----------------------------

                                       pH  =   3.104      Charge balance
                                       pe  =  14.557      Adjusted to redox equilibrium
      Specific Conductance (µS/cm,  30°C)  = 304
                          Density (g/cm³)  =   1.01018
                               Volume (L)  =   1.04664
                        Viscosity (mPa s)  =   0.86708
                        Activity of water  =   0.978
                 Ionic strength (mol/kgw)  =   8.114e-04
                       Mass of water (kg)  =   9.997e-01
                 Total alkalinity (eq/kg)  =  -2.724e-12
                       Total CO2 (mol/kg)  =   1.308e+00
                         Temperature (°C)  =  30.00
                           Pressure (atm)  = 71.03
                  Electrical balance (eq)  =   2.723e-12
 Percent error, 100*(Cat-|An|)/(Cat+|An|)  =   0.00
                               Iterations  =  43
                                  Total H  = 1.109821e+02
                                  Total O  = 5.810704e+01

----------------------------Distribution of species----------------------------

                                               Log       Log       Log    mole V
   Species          Molality    Activity  Molality  Activity     Gamma   cm³/mol

   H+              8.114e-04   7.866e-04    -3.091    -3.104    -0.013      0.00
   OH-             2.006e-11   1.941e-11   -10.698   -10.712    -0.014     -3.78
   H2O             5.551e+01   9.783e-01     1.744    -0.010     0.000     18.04
C(-4)         0.000e+00
   CH4             0.000e+00   0.000e+00  -117.504  -117.504     0.000     35.95
C(4)          1.308e+00
   CO2             1.243e+00   1.244e+00     0.095     0.095     0.000     34.94
   (CO2)2          3.208e-02   3.208e-02    -1.494    -1.494     0.000     69.05
   HCO3-           8.114e-04   7.858e-04    -3.091    -3.105    -0.014     25.09
   CO3-2           6.346e-11   5.583e-11   -10.198   -10.253    -0.056     -3.69
H(0)          6.146e-39
   H2              3.073e-39   3.074e-39   -38.512   -38.512     0.000     15.37
O(0)          3.474e-14
   O2              1.737e-14   1.738e-14   -13.760   -13.760     0.000     30.65

------------------------------Saturation indices-------------------------------

  Phase               SI** log IAP   log K(303 K,  71 atm)

  CH4(g)         -114.62   -117.50   -2.89  CH4
  CO2(g)            1.66      0.09   -1.57  CO2	 Pressure  70.9 atm, phi 0.648
  H2(g)           -35.39    -38.51   -3.13  H2
  H2O(g)           -1.36     -0.01    1.35  H2O	 Pressure   0.1 atm, phi 0.322
  O2(g)           -10.80    -13.76   -2.96  O2

**For a gas, SI = log10(fugacity). Fugacity = pressure * phi / 1 atm.
  For ideal gases, phi = 1.

Reaction step 18.

Using solution 1.	
Using gas phase 1.	
Using reaction 1.	

Reaction 1.	

	  1.000e+00 moles of the following reaction have been added:

	                 Relative
	Reactant            moles

	CO2                  1.00000

	                 Relative
	Element             moles
	C                    1.00000
	O                    2.00000

-----------------------------------Gas phase-----------------------------------

Total pressure: 71.05      atmospheres          (Peng-Robinson calculation)
    Gas volume:   1.00e+00 liters
  Molar volume:   1.11e-01 liters/mole
   P * Vm / RT:  0.31696  (Compressibility Factor Z) 

                                                        Moles in gas
                                            ----------------------------------
Component         log P           P    phi     Initial       Final       Delta

CO2(g)             1.85   7.090e+01  0.648   7.992e+00   8.992e+00   1.000e+00
H2O(g)            -0.84   1.459e-01  0.296   1.514e-02   1.851e-02   3.367e-03

-----------------------------Solution composition------------------------------

	Elements           Molality       Moles

	C                 1.308e+00   1.308e+00

----------------------------Description of solution----------------------------

                                       pH  =   3.104      Charge balance
                                       pe  =  14.540      Adjusted to redox equilibrium
      Specific Conductance (µS/cm,  30°C)  = 304
                          Density (g/cm³)  =   1.01018
                               Volume (L)  =   1.04658
                        Viscosity (mPa s)  =   0.86708
                        Activity of water  =   0.978
                 Ionic strength (mol/kgw)  =   8.114e-04
                       Mass of water (kg)  =   9.997e-01
                 Total alkalinity (eq/kg)  =  -2.725e-12
                       Total CO2 (mol/kg)  =   1.308e+00
                         Temperature (°C)  =  30.00
                           Pressure (atm)  = 71.05
                  Electrical balance (eq)  =   2.724e-12
 Percent error, 100*(Cat-|An|)/(Cat+|An|)  =   0.00
                               Iterations  =  47
                                  Total H  = 1.109754e+02
                                  Total O  = 5.810363e+01

----------------------------Distribution of species----------------------------

                                               Log       Log       Log    mole V
   Species          Molality    Activity  Molality  Activity     Gamma   cm³/mol

   H+              8.114e-04   7.866e-04    -3.091    -3.104    -0.013      0.00
   OH-             2.006e-11   1.941e-11   -10.698   -10.712    -0.014     -3.78
   H2O             5.551e+01   9.783e-01     1.744    -0.010     0.000     18.04
C(-4)         0.000e+00
   CH4             0.000e+00   0.000e+00  -117.371  -117.371     0.000     35.95
C(4)          1.308e+00
   CO2             1.243e+00   1.244e+00     0.095     0.095     0.000     34.94
   (CO2)2          3.208e-02   3.208e-02    -1.494    -1.494     0.000     69.05
   HCO3-           8.114e-04   7.858e-04    -3.091    -3.105    -0.014     25.09
   CO3-2           6.346e-11   5.583e-11   -10.198   -10.253    -0.056     -3.69
H(0)          6.633e-39
   H2              3.316e-39   3.317e-39   -38.479   -38.479     0.000     15.37
O(0)          2.983e-14
   O2              1.492e-14   1.492e-14   -13.826   -13.826     0.000     30.65

------------------------------Saturation indices-------------------------------

  Phase               SI** log IAP   log K(303 K,  71 atm)

  CH4(g)         -114.48   -117.37   -2.89  CH4
  CO2(g)            1.66      0.09   -1.57  CO2	 Pressure  70.9 atm, phi 0.648
  H2(g)           -35.35    -38.48   -3.13  H2
  H2O(g)           -1.36     -0.01    1.35  H2O	 Pressure   0.1 atm, phi 0.296
  O2(g)           -10.86    -13.83   -2.96  O2

**For a gas, SI = log10(fugacity). Fugacity = pressure * phi / 1 atm.
  For ideal gases, phi = 1.

Reaction step 19.

Using solution 1.	
Using gas phase 1.	
Using reaction 1.	

Reaction 1.	

	  1.000e+00 moles of the following reaction have been added:

	                 Relative
	Reactant            moles

	CO2                  1.00000

	                 Relative
	Element             moles
	C                    1.00000
	O                    2.00000

-----------------------------------Gas phase-----------------------------------

Total pressure: 71.02      atmospheres          (Peng-Robinson calculation)
    Gas volume:   1.00e+00 liters
  Molar volume:   9.99e-02 liters/mole
   P * Vm / RT:  0.28508  (Compressibility Factor Z) 

                                                        Moles in gas
                                            ----------------------------------
Component         log P           P    phi     Initial       Final       Delta

CO2(g)             1.85   7.086e+01  0.648   8.992e+00   9.992e+00   1.000e+00
H2O(g)            -0.80   1.585e-01  0.273   1.851e-02   2.235e-02   3.837e-03

-----------------------------Solution composition------------------------------

	Elements           Molality       Moles

	C                 1.308e+00   1.308e+00

----------------------------Description of solution----------------------------

                                       pH  =   3.104      Charge balance
                                       pe  =  14.524      Adjusted to redox equilibrium
      Specific Conductance (µS/cm,  30°C)  = 304
                          Density (g/cm³)  =   1.01018
                               Volume (L)  =   1.04650
                        Viscosity (mPa s)  =   0.86707
                        Activity of water  =   0.978
                 Ionic strength (mol/kgw)  =   8.113e-04
                       Mass of water (kg)  =   9.996e-01
                 Total alkalinity (eq/kg)  =  -2.719e-12
                       Total CO2 (mol/kg)  =   1.308e+00
                         Temperature (°C)  =  30.00
                           Pressure (atm)  = 71.02
                  Electrical balance (eq)  =   2.718e-12
 Percent error, 100*(Cat-|An|)/(Cat+|An|)  =   0.00
                               Iterations  =  42
                                  Total H  = 1.109677e+02
                                  Total O  = 5.809910e+01

----------------------------Distribution of species----------------------------

                                               Log       Log       Log    mole V
   Species          Molality    Activity  Molality  Activity     Gamma   cm³/mol

   H+              8.113e-04   7.865e-04    -3.091    -3.104    -0.013      0.00
   OH-             2.006e-11   1.942e-11   -10.698   -10.712    -0.014     -3.78
   H2O             5.551e+01   9.783e-01     1.744    -0.010     0.000     18.04
C(-4)         0.000e+00
   CH4             0.000e+00   0.000e+00  -117.240  -117.240     0.000     35.95
C(4)          1.308e+00
   CO2             1.243e+00   1.243e+00     0.095     0.095     0.000     34.94
   (CO2)2          3.207e-02   3.207e-02    -1.494    -1.494     0.000     69.05
   HCO3-           8.113e-04   7.858e-04    -3.091    -3.105    -0.014     25.09
   CO3-2           6.346e-11   5.583e-11   -10.198   -10.253    -0.056     -3.69
H(0)          7.153e-39
   H2              3.576e-39   3.577e-39   -38.447   -38.446     0.000     15.37
O(0)          2.565e-14
   O2              1.283e-14   1.283e-14   -13.892   -13.892     0.000     30.65

------------------------------Saturation indices-------------------------------

  Phase               SI** log IAP   log K(303 K,  71 atm)

  CH4(g)         -114.35   -117.24   -2.89  CH4
  CO2(g)            1.66      0.09   -1.57  CO2	 Pressure  70.9 atm, phi 0.648
  H2(g)           -35.32    -38.45   -3.13  H2
  H2O(g)           -1.36     -0.01    1.35  H2O	 Pressure   0.2 atm, phi 0.273
  O2(g)           -10.93    -13.89   -2.96  O2

**For a gas, SI = log10(fugacity). Fugacity = pressure * phi / 1 atm.
  For ideal gases, phi = 1.

Reaction step 20.

Using solution 1.	
Using gas phase 1.	
Using reaction 1.	

Reaction 1.	

	  1.000e+00 moles of the following reaction have been added:

	                 Relative
	Reactant            moles

	CO2                  1.00000

	                 Relative
	Element             moles
	C                    1.00000
	O                    2.00000

-----------------------------------Gas phase-----------------------------------

Total pressure: 70.99      atmospheres          (Peng-Robinson calculation)
    Gas volume:   1.00e+00 liters
  Molar volume:   9.07e-02 liters/mole
   P * Vm / RT:  0.25898  (Compressibility Factor Z) 

                                                        Moles in gas
                                            ----------------------------------
Component         log P           P    phi     Initial       Final       Delta

CO2(g)             1.85   7.082e+01  0.648   9.992e+00   1.099e+01   1.000e+00
H2O(g)            -0.76   1.720e-01  0.251   2.235e-02   2.670e-02   4.349e-03

-----------------------------Solution composition------------------------------

	Elements           Molality       Moles

	C                 1.308e+00   1.307e+00

----------------------------Description of solution----------------------------

                                       pH  =   3.104      Charge balance
                                       pe  =  14.521      Adjusted to redox equilibrium
      Specific Conductance (µS/cm,  30°C)  = 304
                          Density (g/cm³)  =   1.01017
                               Volume (L)  =   1.04640
                        Viscosity (mPa s)  =   0.86705
                        Activity of water  =   0.978
                 Ionic strength (mol/kgw)  =   8.112e-04
                       Mass of water (kg)  =   9.995e-01
                 Total alkalinity (eq/kg)  =  -2.721e-12
                       Total CO2 (mol/kg)  =   1.308e+00
                         Temperature (°C)  =  30.00
                           Pressure (atm)  = 70.99
                  Electrical balance (eq)  =   2.719e-12
 Percent error, 100*(Cat-|An|)/(Cat+|An|)  =   0.00
                               Iterations  =  46
                                  Total H  = 1.109590e+02
                                  Total O  = 5.809383e+01

----------------------------Distribution of species----------------------------

                                               Log       Log       Log    mole V
   Species          Molality    Activity  Molality  Activity     Gamma   cm³/mol

   H+              8.112e-04   7.864e-04    -3.091    -3.104    -0.013      0.00
   OH-             2.006e-11   1.942e-11   -10.698   -10.712    -0.014     -3.78
   H2O             5.551e+01   9.783e-01     1.744    -0.010     0.000     18.04
C(-4)         0.000e+00
   CH4             0.000e+00   0.000e+00  -117.214  -117.214     0.000     35.95
C(4)          1.308e+00
   CO2             1.243e+00   1.243e+00     0.094     0.094     0.000     34.94
   (CO2)2          3.205e-02   3.206e-02    -1.494    -1.494     0.000     69.05
   HCO3-           8.112e-04   7.857e-04    -3.091    -3.105    -0.014     25.09
   CO3-2           6.345e-11   5.583e-11   -10.198   -10.253    -0.056     -3.69
H(0)          7.262e-39
   H2              3.631e-39   3.632e-39   -38.440   -38.440     0.000     15.37
O(0)          2.488e-14
   O2              1.244e-14   1.244e-14   -13.905   -13.905     0.000     30.65

------------------------------Saturation indices-------------------------------

  Phase               SI** log IAP   log K(303 K,  71 atm)

  CH4(g)         -114.33   -117.21   -2.89  CH4
  CO2(g)            1.66      0.09   -1.57  CO2	 Pressure  70.8 atm, phi 0.648
  H2(g)           -35.31    -38.44   -3.13  H2
  H2O(g)           -1.36     -0.01    1.35  H2O	 Pressure   0.2 atm, phi 0.251
  O2(g)           -10.94    -13.91   -2.96  O2

**For a gas, SI = log10(fugacity). Fugacity = pressure * phi / 1 atm.
  For ideal gases, phi = 1.

Reaction step 21.

Using solution 1.	
Using gas phase 1.	
Using reaction 1.	

Reaction 1.	

	  1.000e+00 moles of the following reaction have been added:

	                 Relative
	Reactant            moles

	CO2                  1.00000

	                 Relative
	Element             moles
	C                    1.00000
	O                    2.00000

-----------------------------------Gas phase-----------------------------------

Total pressure: 70.99      atmospheres          (Peng-Robinson calculation)
    Gas volume:   1.00e+00 liters
  Molar volume:   8.32e-02 liters/mole
   P * Vm / RT:  0.23733  (Compressibility Factor Z) 

                                                        Moles in gas
                                            ----------------------------------
Component         log P           P    phi     Initial       Final       Delta

CO2(g)             1.85   7.081e+01  0.648   1.099e+01   1.199e+01   1.000e+00
H2O(g)            -0.73   1.865e-01  0.232   2.670e-02   3.160e-02   4.901e-03

-----------------------------Solution composition------------------------------

	Elements           Molality       Moles

	C                 1.308e+00   1.307e+00

----------------------------Description of solution----------------------------

                                       pH  =   3.104      Charge balance
                                       pe  =  14.489      Adjusted to redox equilibrium
      Specific Conductance (µS/cm,  30°C)  = 304
                          Density (g/cm³)  =   1.01017
                               Volume (L)  =   1.04631
                        Viscosity (mPa s)  =   0.86704
                        Activity of water  =   0.978
                 Ionic strength (mol/kgw)  =   8.111e-04
                       Mass of water (kg)  =   9.994e-01
                 Total alkalinity (eq/kg)  =  -2.748e-12
                       Total CO2 (mol/kg)  =   1.308e+00
                         Temperature (°C)  =  30.00
                           Pressure (atm)  = 70.99
                  Electrical balance (eq)  =   2.746e-12
 Percent error, 100*(Cat-|An|)/(Cat+|An|)  =   0.00
                               Iterations  =  41
                                  Total H  = 1.109492e+02
                                  Total O  = 5.808838e+01

----------------------------Distribution of species----------------------------

                                               Log       Log       Log    mole V
   Species          Molality    Activity  Molality  Activity     Gamma   cm³/mol

   H+              8.111e-04   7.864e-04    -3.091    -3.104    -0.013      0.00
   OH-             2.006e-11   1.942e-11   -10.698   -10.712    -0.014     -3.78
   H2O             5.551e+01   9.783e-01     1.744    -0.010     0.000     18.04
C(-4)         0.000e+00
   CH4             0.000e+00   0.000e+00  -116.963  -116.963     0.000     35.95
C(4)          1.308e+00
   CO2             1.243e+00   1.243e+00     0.094     0.094     0.000     34.94
   (CO2)2          3.204e-02   3.205e-02    -1.494    -1.494     0.000     69.05
   HCO3-           8.111e-04   7.856e-04    -3.091    -3.105    -0.014     25.09
   CO3-2           6.345e-11   5.583e-11   -10.198   -10.253    -0.056     -3.69
H(0)          8.391e-39
   H2              4.195e-39   4.196e-39   -38.377   -38.377     0.000     15.37
O(0)          1.864e-14
   O2              9.321e-15   9.323e-15   -14.031   -14.030     0.000     30.65

------------------------------Saturation indices-------------------------------

  Phase               SI** log IAP   log K(303 K,  71 atm)

  CH4(g)         -114.07   -116.96   -2.89  CH4
  CO2(g)            1.66      0.09   -1.57  CO2	 Pressure  70.8 atm, phi 0.648
  H2(g)           -35.25    -38.38   -3.13  H2
  H2O(g)           -1.36     -0.01    1.35  H2O	 Pressure   0.2 atm, phi 0.232
  O2(g)           -11.07    -14.03   -2.96  O2

**For a gas, SI = log10(fugacity). Fugacity = pressure * phi / 1 atm.
  For ideal gases, phi = 1.

Reaction step 22.

Using solution 1.	
Using gas phase 1.	
Using reaction 1.	

Reaction 1.	

	  1.000e+00 moles of the following reaction have been added:

	                 Relative
	Reactant            moles

	CO2                  1.00000

	                 Relative
	Element             moles
	C                    1.00000
	O                    2.00000

-----------------------------------Gas phase-----------------------------------

Total pressure: 72.79      atmospheres          (Peng-Robinson calculation)
    Gas volume:   1.00e+00 liters
  Molar volume:   7.68e-02 liters/mole
   P * Vm / RT:  0.22463  (Compressibility Factor Z) 

                                                        Moles in gas
                                            ----------------------------------
Component         log P           P    phi     Initial       Final       Delta

CO2(g)             1.86   7.258e+01  0.636   1.199e+01   1.299e+01   9.957e-01
H2O(g)            -0.68   2.066e-01  0.210   3.160e-02   3.696e-02   5.367e-03

-----------------------------Solution composition------------------------------

	Elements           Molality       Moles

	C                 1.312e+00   1.311e+00

----------------------------Description of solution----------------------------

                                       pH  =   3.103      Charge balance
                                       pe  =  14.496      Adjusted to redox equilibrium
      Specific Conductance (µS/cm,  30°C)  = 304
                          Density (g/cm³)  =   1.01029
                               Volume (L)  =   1.04628
                        Viscosity (mPa s)  =   0.86728
                        Activity of water  =   0.978
                 Ionic strength (mol/kgw)  =   8.133e-04
                       Mass of water (kg)  =   9.993e-01
                 Total alkalinity (eq/kg)  =  -2.709e-12
                       Total CO2 (mol/kg)  =   1.312e+00
                         Temperature (°C)  =  30.00
                           Pressure (atm)  = 72.79
                  Electrical balance (eq)  =   2.707e-12
 Percent error, 100*(Cat-|An|)/(Cat+|An|)  =   0.00
                               Iterations  =  37
                                  Total H  = 1.109385e+02
                                  Total O  = 5.809164e+01

----------------------------Distribution of species----------------------------

                                               Log       Log       Log    mole V
   Species          Molality    Activity  Molality  Activity     Gamma   cm³/mol

   H+              8.133e-04   7.884e-04    -3.090    -3.103    -0.013      0.00
   OH-             2.004e-11   1.940e-11   -10.698   -10.712    -0.014     -3.78
   H2O             5.551e+01   9.782e-01     1.744    -0.010     0.000     18.04
C(-4)         0.000e+00
   CH4             0.000e+00   0.000e+00  -117.007  -117.007     0.000     35.95
C(4)          1.312e+00
   CO2             1.247e+00   1.247e+00     0.096     0.096     0.000     34.94
   (CO2)2          3.225e-02   3.226e-02    -1.491    -1.491     0.000     69.05
   HCO3-           8.133e-04   7.876e-04    -3.090    -3.104    -0.014     25.10
   CO3-2           6.359e-11   5.594e-11   -10.197   -10.252    -0.056     -3.67
H(0)          8.172e-39
   H2              4.086e-39   4.087e-39   -38.389   -38.389     0.000     15.37
O(0)          1.961e-14
   O2              9.806e-15   9.808e-15   -14.009   -14.008     0.000     30.65

------------------------------Saturation indices-------------------------------

  Phase               SI** log IAP   log K(303 K,  73 atm)

  CH4(g)         -114.12   -117.01   -2.89  CH4
  CO2(g)            1.66      0.10   -1.57  CO2	 Pressure  72.6 atm, phi 0.636
  H2(g)           -35.26    -38.39   -3.13  H2
  H2O(g)           -1.36     -0.01    1.35  H2O	 Pressure   0.2 atm, phi 0.210
  O2(g)           -11.04    -14.01   -2.96  O2

**For a gas, SI = log10(fugacity). Fugacity = pressure * phi / 1 atm.
  For ideal gases, phi = 1.

Reaction step 23.

Using solution 1.	
Using gas phase 1.	
Using reaction 1.	

Reaction 1.	

	  1.000e+00 moles of the following reaction have been added:

	                 Relative
	Reactant            moles

	CO2                  1.00000

	                 Relative
	Element             moles
	C                    1.00000
	O                    2.00000

-----------------------------------Gas phase-----------------------------------

Total pressure: 76.40      atmospheres          (Peng-Robinson calculation)
    Gas volume:   1.00e+00 liters
  Molar volume:   7.13e-02 liters/mole
   P * Vm / RT:  0.21900  (Compressibility Factor Z) 

                                                        Moles in gas
                                            ----------------------------------
Component         log P           P    phi     Initial       Final       Delta

CO2(g)             1.88   7.617e+01  0.613   1.299e+01   1.398e+01   9.923e-01
H2O(g)            -0.63   2.333e-01  0.186   3.696e-02   4.282e-02   5.857e-03

-----------------------------Solution composition------------------------------

	Elements           Molality       Moles

	C                 1.320e+00   1.319e+00

----------------------------Description of solution----------------------------

                                       pH  =   3.101      Charge balance
                                       pe  =  14.539      Adjusted to redox equilibrium
      Specific Conductance (µS/cm,  30°C)  = 306
                          Density (g/cm³)  =   1.01051
                               Volume (L)  =   1.04628
                        Viscosity (mPa s)  =   0.86770
                        Activity of water  =   0.978
                 Ionic strength (mol/kgw)  =   8.172e-04
                       Mass of water (kg)  =   9.992e-01
                 Total alkalinity (eq/kg)  =  -2.831e-12
                       Total CO2 (mol/kg)  =   1.320e+00
                         Temperature (°C)  =  30.00
                           Pressure (atm)  = 76.40
                  Electrical balance (eq)  =   2.828e-12
 Percent error, 100*(Cat-|An|)/(Cat+|An|)  =   0.00
                               Iterations  =  33
                                  Total H  = 1.109268e+02
                                  Total O  = 5.810115e+01

----------------------------Distribution of species----------------------------

                                               Log       Log       Log    mole V
   Species          Molality    Activity  Molality  Activity     Gamma   cm³/mol

   H+              8.172e-04   7.922e-04    -3.088    -3.101    -0.014      0.00
   OH-             2.001e-11   1.936e-11   -10.699   -10.713    -0.014     -3.77
   H2O             5.551e+01   9.781e-01     1.744    -0.010     0.000     18.03
C(-4)         0.000e+00
   CH4             0.000e+00   0.000e+00  -117.333  -117.333     0.000     35.96
C(4)          1.320e+00
   CO2             1.254e+00   1.254e+00     0.098     0.098     0.000     34.94
   (CO2)2          3.263e-02   3.263e-02    -1.486    -1.486     0.000     69.04
   HCO3-           8.172e-04   7.914e-04    -3.088    -3.102    -0.014     25.11
   CO3-2           6.387e-11   5.617e-11   -10.195   -10.250    -0.056     -3.64
H(0)          6.759e-39
   H2              3.379e-39   3.380e-39   -38.471   -38.471     0.000     15.37
O(0)          2.856e-14
   O2              1.428e-14   1.428e-14   -13.845   -13.845     0.000     30.65

------------------------------Saturation indices-------------------------------

  Phase               SI** log IAP   log K(303 K,  76 atm)

  CH4(g)         -114.44   -117.33   -2.89  CH4
  CO2(g)            1.67      0.10   -1.57  CO2	 Pressure  76.2 atm, phi 0.613
  H2(g)           -35.34    -38.47   -3.13  H2
  H2O(g)           -1.36     -0.01    1.35  H2O	 Pressure   0.2 atm, phi 0.186
  O2(g)           -10.88    -13.85   -2.97  O2

**For a gas, SI = log10(fugacity). Fugacity = pressure * phi / 1 atm.
  For ideal gases, phi = 1.

Reaction step 24.

Using solution 1.	
Using gas phase 1.	
Using reaction 1.	

Reaction 1.	

	  1.000e+00 moles of the following reaction have been added:

	                 Relative
	Reactant            moles

	CO2                  1.00000

	                 Relative
	Element             moles
	C                    1.00000
	O                    2.00000

-----------------------------------Gas phase-----------------------------------

Total pressure: 82.47      atmospheres          (Peng-Robinson calculation)
    Gas volume:   1.00e+00 liters
  Molar volume:   6.66e-02 liters/mole
   P * Vm / RT:  0.22073  (Compressibility Factor Z) 

                                                        Moles in gas
                                            ----------------------------------
Component         log P           P    phi     Initial       Final       Delta

CO2(g)             1.91   8.220e+01  0.577   1.398e+01   1.497e+01   9.886e-01
H2O(g)            -0.57   2.698e-01  0.161   4.282e-02   4.914e-02   6.321e-03

-----------------------------Solution composition------------------------------

	Elements           Molality       Moles

	C                 1.331e+00   1.330e+00

----------------------------Description of solution----------------------------

                                       pH  =   3.098      Charge balance
                                       pe  =  14.562      Adjusted to redox equilibrium
      Specific Conductance (µS/cm,  30°C)  = 308
                          Density (g/cm³)  =   1.01088
                               Volume (L)  =   1.04628
                        Viscosity (mPa s)  =   0.86832
                        Activity of water  =   0.978
                 Ionic strength (mol/kgw)  =   8.234e-04
                       Mass of water (kg)  =   9.991e-01
                 Total alkalinity (eq/kg)  =  -2.923e-12
                       Total CO2 (mol/kg)  =   1.331e+00
                         Temperature (°C)  =  30.00
                           Pressure (atm)  = 82.47
                  Electrical balance (eq)  =   2.920e-12
 Percent error, 100*(Cat-|An|)/(Cat+|An|)  =   0.00
                               Iterations  =  37
                                  Total H  = 1.109142e+02
                                  Total O  = 5.811764e+01

----------------------------Distribution of species----------------------------

                                               Log       Log       Log    mole V
   Species          Molality    Activity  Molality  Activity     Gamma   cm³/mol

   H+              8.234e-04   7.981e-04    -3.084    -3.098    -0.014      0.00
   OH-             1.996e-11   1.932e-11   -10.700   -10.714    -0.014     -3.76
   H2O             5.551e+01   9.779e-01     1.744    -0.010     0.000     18.03
C(-4)         0.000e+00
   CH4             0.000e+00   0.000e+00  -117.491  -117.491     0.000     35.96
C(4)          1.331e+00
   CO2             1.264e+00   1.264e+00     0.102     0.102     0.000     34.93
   (CO2)2          3.318e-02   3.318e-02    -1.479    -1.479     0.000     69.02
   HCO3-           8.234e-04   7.973e-04    -3.084    -3.098    -0.014     25.13
   CO3-2           6.434e-11   5.656e-11   -10.192   -10.247    -0.056     -3.59
H(0)          6.146e-39
   H2              3.073e-39   3.074e-39   -38.512   -38.512     0.000     15.37
O(0)          3.432e-14
   O2              1.716e-14   1.716e-14   -13.766   -13.765     0.000     30.64

------------------------------Saturation indices-------------------------------

  Phase               SI** log IAP   log K(303 K,  82 atm)

  CH4(g)         -114.60   -117.49   -2.90  CH4
  CO2(g)            1.68      0.10   -1.57  CO2	 Pressure  82.2 atm, phi 0.577
  H2(g)           -35.38    -38.51   -3.13  H2
  H2O(g)           -1.36     -0.01    1.35  H2O	 Pressure   0.3 atm, phi 0.161
  O2(g)           -10.80    -13.77   -2.97  O2

**For a gas, SI = log10(fugacity). Fugacity = pressure * phi / 1 atm.
  For ideal gases, phi = 1.

------------------
End of simulation.
------------------

------------------------------------
Reading input data for simulation 2.
------------------------------------

