WARNING: Database file from DATABASE keyword is used; command line argument ignored.
   Input file: CO2_conc_PR_GP
  Output file: CO2_conc_PR_GP.out
Database file: ../database/phreeqc.dat

------------------
Reading data base.
------------------

	SOLUTION_MASTER_SPECIES
	SOLUTION_SPECIES
	PHASES
	GAS_BINARY_PARAMETERS
	EXCHANGE_MASTER_SPECIES
	EXCHANGE_SPECIES
	SURFACE_MASTER_SPECIES
	SURFACE_SPECIES
	MEAN_GAMMAS
	RATES
	END
------------------------------------
Reading input data for simulation 1.
------------------------------------

	DATABASE ../database/phreeqc.dat
	SELECTED_OUTPUT 101
	    file                 CO2_conc_PR_GP_101.sel
	USER_PUNCH 101
	    headings Mu SC
	    start
	10 PUNCH STR_F$(MU, 20, 12)
	20 PUNCH STR_F$(SC, 20, 10)
	    end
	KNOBS
	SOLUTION 1 pH 7 charge
	GAS_PHASE 6
	    fixed_volume
	    CO2(g) 0
		H2O(g) 0
	USER_GRAPH
	 -chart_title "Using: GAS_PHASE with H2O(g)"
	 -plot_csv_file co2.dat
	 -axis_titles "Pressure / atm" "CO2 / (mol/kgw)"
	 -axis_scale x_axis 0 500
	 -axis_scale y_axis 0 2
	 -init true
	 10 x = PR_P("CO2(g)")
	 20 graph_x x
	 30 graph_y tot("C(4)")
	 -end
	INCREMENTAL_REACTIONS
	REACTION
	 CO2 1
	 27 in 26
	END
-------------------------------------------
Beginning of initial solution calculations.
-------------------------------------------

Initial solution 1.	pH 7 charge

-----------------------------Solution composition------------------------------

	Elements           Molality       Moles

	Pure water     

----------------------------Description of solution----------------------------

                                       pH  =   7.000    
                                       pe  =   4.000    
      Specific Conductance (µS/cm,  25°C)  = 0
                          Density (g/cm³)  =   0.99704
                               Volume (L)  =   1.00297
                        Viscosity (mPa s)  =   0.89002
                        Activity of water  =   1.000
                 Ionic strength (mol/kgw)  =   1.007e-07
                       Mass of water (kg)  =   1.000e+00
                 Total alkalinity (eq/kg)  =   1.217e-09
                         Temperature (°C)  =  25.00
                  Electrical balance (eq)  =  -1.217e-09
 Percent error, 100*(Cat-|An|)/(Cat+|An|)  =  -0.60
                               Iterations  =   0
                                  Total H  = 1.110124e+02
                                  Total O  = 5.550622e+01

----------------------------Distribution of species----------------------------

                                               Log       Log       Log    mole V
   Species          Molality    Activity  Molality  Activity     Gamma   cm³/mol

   OH-             1.013e-07   1.012e-07    -6.995    -6.995    -0.000     -4.14
   H+              1.001e-07   1.000e-07    -7.000    -7.000    -0.000      0.00
   H2O             5.551e+01   1.000e+00     1.744     0.000     0.000     18.07
H(0)          1.416e-25
   H2              7.079e-26   7.079e-26   -25.150   -25.150     0.000     14.99
O(0)          0.000e+00
   O2              0.000e+00   0.000e+00   -42.063   -42.063     0.000     30.40

------------------------------Saturation indices-------------------------------

  Phase               SI** log IAP   log K(298 K,   1 atm)

  H2(g)           -22.05    -25.15   -3.10  H2
  H2O(g)           -1.50      0.00    1.50  H2O
  O2(g)           -39.17    -42.06   -2.89  O2

**For a gas, SI = log10(fugacity). Fugacity = pressure * phi / 1 atm.
  For ideal gases, phi = 1.

-----------------------------------------
Beginning of batch-reaction calculations.
-----------------------------------------

Reaction step 1.

Using solution 1.	pH 7 charge
Using gas phase 6.	
Using reaction 1.	

Reaction 1.	

	  1.038e+00 moles of the following reaction have been added:

	                 Relative
	Reactant            moles

	CO2                  1.00000

	                 Relative
	Element             moles
	C                    1.00000
	O                    2.00000

-----------------------------------Gas phase-----------------------------------

Total pressure: 13.74      atmospheres          (Peng-Robinson calculation)
    Gas volume:   1.00e+00 liters
  Molar volume:   1.64e+00 liters/mole
   P * Vm / RT:  0.92058  (Compressibility Factor Z) 

                                                        Moles in gas
                                            ----------------------------------
Component         log P           P    phi     Initial       Final       Delta

CO2(g)             1.14   1.370e+01  0.925   0.000e+00   6.085e-01   6.085e-01
H2O(g)            -1.44   3.605e-02  0.873   0.000e+00   1.601e-03   1.601e-03

-----------------------------Solution composition------------------------------

	Elements           Molality       Moles

	C                 4.300e-01   4.300e-01

----------------------------Description of solution----------------------------

                                       pH  =   3.361      Charge balance
                                       pe  =  14.514      Adjusted to redox equilibrium
      Specific Conductance (µS/cm,  25°C)  = 167
                          Density (g/cm³)  =   1.00157
                               Volume (L)  =   1.01730
                        Viscosity (mPa s)  =   0.91943
                        Activity of water  =   0.993
                 Ionic strength (mol/kgw)  =   4.462e-04
                       Mass of water (kg)  =   1.000e+00
                 Total alkalinity (eq/kg)  =   1.216e-09
                       Total CO2 (mol/kg)  =   4.300e-01
                         Temperature (°C)  =  25.00
                           Pressure (atm)  = 13.74
                  Electrical balance (eq)  =  -1.216e-09
 Percent error, 100*(Cat-|An|)/(Cat+|An|)  =  -0.00
                               Iterations  =  43
                                  Total H  = 1.110092e+02
                                  Total O  = 5.636463e+01

----------------------------Distribution of species----------------------------

                                               Log       Log       Log    mole V
   Species          Molality    Activity  Molality  Activity     Gamma   cm³/mol

   H+              4.462e-04   4.359e-04    -3.351    -3.361    -0.010      0.00
   OH-             2.389e-11   2.332e-11   -10.622   -10.632    -0.011     -4.07
   H2O             5.551e+01   9.927e-01     1.744    -0.003     0.000     18.06
C(-4)         0.000e+00
   CH4             0.000e+00   0.000e+00  -118.979  -118.978     0.000     35.47
C(4)          4.300e-01
   CO2             4.237e-01   4.238e-01    -0.373    -0.373     0.000     34.78
   (CO2)2          2.920e-03   2.921e-03    -2.535    -2.535     0.000     68.72
   HCO3-           4.462e-04   4.356e-04    -3.351    -3.361    -0.010     24.58
   CO3-2           5.236e-11   4.759e-11   -10.281   -10.322    -0.042     -4.60
H(0)          2.507e-39
   H2              1.253e-39   1.254e-39   -38.902   -38.902     0.000     15.00
O(0)          5.374e-15
   O2              2.687e-15   2.687e-15   -14.571   -14.571     0.000     30.38

------------------------------Saturation indices-------------------------------

  Phase               SI** log IAP   log K(298 K,  14 atm)

  CH4(g)         -116.17   -118.98   -2.81  CH4
  CO2(g)            1.10     -0.37   -1.48  CO2	 Pressure  13.7 atm, phi 0.925
  H2(g)           -35.80    -38.90   -3.10  H2
  H2O(g)           -1.50     -0.00    1.50  H2O	 Pressure   0.0 atm, phi 0.873
  O2(g)           -11.67    -14.57   -2.90  O2

**For a gas, SI = log10(fugacity). Fugacity = pressure * phi / 1 atm.
  For ideal gases, phi = 1.

Reaction step 2.

Using solution 1.	pH 7 charge
Using gas phase 6.	
Using reaction 1.	

Reaction 1.	

	  1.038e+00 moles of the following reaction have been added:

	                 Relative
	Reactant            moles

	CO2                  1.00000

	                 Relative
	Element             moles
	C                    1.00000
	O                    2.00000

-----------------------------------Gas phase-----------------------------------

Total pressure: 26.80      atmospheres          (Peng-Robinson calculation)
    Gas volume:   1.00e+00 liters
  Molar volume:   7.64e-01 liters/mole
   P * Vm / RT:  0.83749  (Compressibility Factor Z) 

                                                        Moles in gas
                                            ----------------------------------
Component         log P           P    phi     Initial       Final       Delta

CO2(g)             1.43   2.676e+01  0.857   6.085e-01   1.306e+00   6.976e-01
H2O(g)            -1.38   4.172e-02  0.758   1.601e-03   2.036e-03   4.354e-04

-----------------------------Solution composition------------------------------

	Elements           Molality       Moles

	C                 7.709e-01   7.709e-01

----------------------------Description of solution----------------------------

                                       pH  =   3.234      Charge balance
                                       pe  =  14.644      Adjusted to redox equilibrium
      Specific Conductance (µS/cm,  25°C)  = 218
                          Density (g/cm³)  =   1.00520
                               Volume (L)  =   1.02854
                        Viscosity (mPa s)  =   0.94259
                        Activity of water  =   0.987
                 Ionic strength (mol/kgw)  =   5.992e-04
                       Mass of water (kg)  =   1.000e+00
                 Total alkalinity (eq/kg)  =   1.216e-09
                       Total CO2 (mol/kg)  =   7.709e-01
                         Temperature (°C)  =  25.00
                           Pressure (atm)  = 26.80
                  Electrical balance (eq)  =  -1.216e-09
 Percent error, 100*(Cat-|An|)/(Cat+|An|)  =  -0.00
                               Iterations  =  30
                                  Total H  = 1.110084e+02
                                  Total O  = 5.704595e+01

----------------------------Distribution of species----------------------------

                                               Log       Log       Log    mole V
   Species          Molality    Activity  Molality  Activity     Gamma   cm³/mol

   H+              5.992e-04   5.834e-04    -3.222    -3.234    -0.012      0.00
   OH-             1.802e-11   1.753e-11   -10.744   -10.756    -0.012     -4.02
   H2O             5.551e+01   9.870e-01     1.744    -0.006     0.000     18.05
C(-4)         0.000e+00
   CH4             0.000e+00   0.000e+00  -118.764  -118.764     0.000     35.49
C(4)          7.709e-01
   CO2             7.519e-01   7.520e-01    -0.124    -0.124     0.000     34.77
   (CO2)2          9.201e-03   9.201e-03    -2.036    -2.036     0.000     68.69
   HCO3-           5.992e-04   5.830e-04    -3.222    -3.234    -0.012     24.62
   CO3-2           5.395e-11   4.832e-11   -10.268   -10.316    -0.048     -4.47
H(0)          2.443e-39
   H2              1.221e-39   1.222e-39   -38.913   -38.913     0.000     15.01
O(0)          5.522e-15
   O2              2.761e-15   2.761e-15   -14.559   -14.559     0.000     30.36

------------------------------Saturation indices-------------------------------

  Phase               SI** log IAP   log K(298 K,  27 atm)

  CH4(g)         -115.95   -118.76   -2.82  CH4
  CO2(g)            1.36     -0.12   -1.48  CO2	 Pressure  26.8 atm, phi 0.857
  H2(g)           -35.81    -38.91   -3.11  H2
  H2O(g)           -1.50     -0.01    1.49  H2O	 Pressure   0.0 atm, phi 0.758
  O2(g)           -11.65    -14.56   -2.91  O2

**For a gas, SI = log10(fugacity). Fugacity = pressure * phi / 1 atm.
  For ideal gases, phi = 1.

Reaction step 3.

Using solution 1.	pH 7 charge
Using gas phase 6.	
Using reaction 1.	

Reaction 1.	

	  1.038e+00 moles of the following reaction have been added:

	                 Relative
	Reactant            moles

	CO2                  1.00000

	                 Relative
	Element             moles
	C                    1.00000
	O                    2.00000

-----------------------------------Gas phase-----------------------------------

Total pressure: 38.59      atmospheres          (Peng-Robinson calculation)
    Gas volume:   1.00e+00 liters
  Molar volume:   4.77e-01 liters/mole
   P * Vm / RT:  0.75246  (Compressibility Factor Z) 

                                                        Moles in gas
                                            ----------------------------------
Component         log P           P    phi     Initial       Final       Delta

CO2(g)             1.59   3.854e+01  0.796   1.306e+00   2.093e+00   7.873e-01
H2O(g)            -1.31   4.848e-02  0.655   2.036e-03   2.633e-03   5.972e-04

-----------------------------Solution composition------------------------------

	Elements           Molality       Moles

	C                 1.022e+00   1.022e+00

----------------------------Description of solution----------------------------

                                       pH  =   3.172      Charge balance
                                       pe  =  14.757      Adjusted to redox equilibrium
      Specific Conductance (µS/cm,  25°C)  = 247
                          Density (g/cm³)  =   1.00794
                               Volume (L)  =   1.03671
                        Viscosity (mPa s)  =   0.95961
                        Activity of water  =   0.983
                 Ionic strength (mol/kgw)  =   6.919e-04
                       Mass of water (kg)  =   9.999e-01
                 Total alkalinity (eq/kg)  =   1.216e-09
                       Total CO2 (mol/kg)  =   1.022e+00
                         Temperature (°C)  =  25.00
                           Pressure (atm)  = 38.59
                  Electrical balance (eq)  =  -1.216e-09
 Percent error, 100*(Cat-|An|)/(Cat+|An|)  =  -0.00
                               Iterations  =  28
                                  Total H  = 1.110072e+02
                                  Total O  = 5.754777e+01

----------------------------Distribution of species----------------------------

                                               Log       Log       Log    mole V
   Species          Molality    Activity  Molality  Activity     Gamma   cm³/mol

   H+              6.919e-04   6.724e-04    -3.160    -3.172    -0.012      0.00
   OH-             1.577e-11   1.530e-11   -10.802   -10.815    -0.013     -3.97
   H2O             5.551e+01   9.829e-01     1.744    -0.007     0.000     18.04
C(-4)         0.000e+00
   CH4             0.000e+00   0.000e+00  -119.056  -119.056     0.000     35.51
C(4)          1.022e+00
   CO2             9.896e-01   9.897e-01    -0.005    -0.005     0.000     34.75
   (CO2)2          1.594e-02   1.594e-02    -1.797    -1.797     0.000     68.67
   HCO3-           6.919e-04   6.718e-04    -3.160    -3.173    -0.013     24.66
   CO3-2           5.512e-11   4.899e-11   -10.259   -10.310    -0.051     -4.35
H(0)          1.918e-39
   H2              9.590e-40   9.592e-40   -39.018   -39.018     0.000     15.02
O(0)          8.778e-15
   O2              4.389e-15   4.390e-15   -14.358   -14.358     0.000     30.35

------------------------------Saturation indices-------------------------------

  Phase               SI** log IAP   log K(298 K,  39 atm)

  CH4(g)         -116.23   -119.06   -2.83  CH4
  CO2(g)            1.49     -0.00   -1.49  CO2	 Pressure  38.5 atm, phi 0.796
  H2(g)           -35.91    -39.02   -3.11  H2
  H2O(g)           -1.50     -0.01    1.49  H2O	 Pressure   0.0 atm, phi 0.655
  O2(g)           -11.44    -14.36   -2.91  O2

**For a gas, SI = log10(fugacity). Fugacity = pressure * phi / 1 atm.
  For ideal gases, phi = 1.

Reaction step 4.

Using solution 1.	pH 7 charge
Using gas phase 6.	
Using reaction 1.	

Reaction 1.	

	  1.038e+00 moles of the following reaction have been added:

	                 Relative
	Reactant            moles

	CO2                  1.00000

	                 Relative
	Element             moles
	C                    1.00000
	O                    2.00000

-----------------------------------Gas phase-----------------------------------

Total pressure: 48.48      atmospheres          (Peng-Robinson calculation)
    Gas volume:   1.00e+00 liters
  Molar volume:   3.37e-01 liters/mole
   P * Vm / RT:  0.66820  (Compressibility Factor Z) 

                                                        Moles in gas
                                            ----------------------------------
Component         log P           P    phi     Initial       Final       Delta

CO2(g)             1.69   4.842e+01  0.746   2.093e+00   2.962e+00   8.685e-01
H2O(g)            -1.25   5.624e-02  0.567   2.633e-03   3.440e-03   8.068e-04

-----------------------------Solution composition------------------------------

	Elements           Molality       Moles

	C                 1.192e+00   1.192e+00

----------------------------Description of solution----------------------------

                                       pH  =   3.138      Charge balance
                                       pe  =  14.758      Adjusted to redox equilibrium
      Specific Conductance (µS/cm,  25°C)  = 264
                          Density (g/cm³)  =   1.00985
                               Volume (L)  =   1.04214
                        Viscosity (mPa s)  =   0.97109
                        Activity of water  =   0.980
                 Ionic strength (mol/kgw)  =   7.494e-04
                       Mass of water (kg)  =   9.999e-01
                 Total alkalinity (eq/kg)  =   1.216e-09
                       Total CO2 (mol/kg)  =   1.192e+00
                         Temperature (°C)  =  25.00
                           Pressure (atm)  = 48.48
                  Electrical balance (eq)  =  -1.215e-09
 Percent error, 100*(Cat-|An|)/(Cat+|An|)  =  -0.00
                               Iterations  =  23
                                  Total H  = 1.110056e+02
                                  Total O  = 5.788696e+01

----------------------------Distribution of species----------------------------

                                               Log       Log       Log    mole V
   Species          Molality    Activity  Molality  Activity     Gamma   cm³/mol

   H+              7.494e-04   7.275e-04    -3.125    -3.138    -0.013      0.00
   OH-             1.468e-11   1.423e-11   -10.833   -10.847    -0.014     -3.94
   H2O             5.551e+01   9.801e-01     1.744    -0.009     0.000     18.03
C(-4)         0.000e+00
   CH4             0.000e+00   0.000e+00  -118.730  -118.730     0.000     35.52
C(4)          1.192e+00
   CO2             1.148e+00   1.149e+00     0.060     0.060     0.000     34.74
   (CO2)2          2.148e-02   2.148e-02    -1.668    -1.668     0.000     68.65
   HCO3-           7.494e-04   7.268e-04    -3.125    -3.139    -0.013     24.69
   CO3-2           5.601e-11   4.956e-11   -10.252   -10.305    -0.053     -4.26
H(0)          2.221e-39
   H2              1.111e-39   1.111e-39   -38.954   -38.954     0.000     15.02
O(0)          6.442e-15
   O2              3.221e-15   3.222e-15   -14.492   -14.492     0.000     30.33

------------------------------Saturation indices-------------------------------

  Phase               SI** log IAP   log K(298 K,  48 atm)

  CH4(g)         -115.90   -118.73   -2.83  CH4
  CO2(g)            1.56      0.06   -1.50  CO2	 Pressure  48.4 atm, phi 0.746
  H2(g)           -35.84    -38.95   -3.11  H2
  H2O(g)           -1.50     -0.01    1.49  H2O	 Pressure   0.1 atm, phi 0.567
  O2(g)           -11.57    -14.49   -2.92  O2

**For a gas, SI = log10(fugacity). Fugacity = pressure * phi / 1 atm.
  For ideal gases, phi = 1.

Reaction step 5.

Using solution 1.	pH 7 charge
Using gas phase 6.	
Using reaction 1.	

Reaction 1.	

	  1.038e+00 moles of the following reaction have been added:

	                 Relative
	Reactant            moles

	CO2                  1.00000

	                 Relative
	Element             moles
	C                    1.00000
	O                    2.00000

-----------------------------------Gas phase-----------------------------------

Total pressure: 56.06      atmospheres          (Peng-Robinson calculation)
    Gas volume:   1.00e+00 liters
  Molar volume:   2.56e-01 liters/mole
   P * Vm / RT:  0.58748  (Compressibility Factor Z) 

                                                        Moles in gas
                                            ----------------------------------
Component         log P           P    phi     Initial       Final       Delta

CO2(g)             1.75   5.599e+01  0.707   2.962e+00   3.896e+00   9.340e-01
H2O(g)            -1.19   6.475e-02  0.494   3.440e-03   4.505e-03   1.065e-03

-----------------------------Solution composition------------------------------

	Elements           Molality       Moles

	C                 1.297e+00   1.297e+00

----------------------------Description of solution----------------------------

                                       pH  =   3.119      Charge balance
                                       pe  =  14.851      Adjusted to redox equilibrium
      Specific Conductance (µS/cm,  25°C)  = 274
                          Density (g/cm³)  =   1.01108
                               Volume (L)  =   1.04539
                        Viscosity (mPa s)  =   0.97812
                        Activity of water  =   0.978
                 Ionic strength (mol/kgw)  =   7.835e-04
                       Mass of water (kg)  =   9.999e-01
                 Total alkalinity (eq/kg)  =   1.216e-09
                       Total CO2 (mol/kg)  =   1.297e+00
                         Temperature (°C)  =  25.00
                           Pressure (atm)  = 56.06
                  Electrical balance (eq)  =  -1.215e-09
 Percent error, 100*(Cat-|An|)/(Cat+|An|)  =  -0.00
                               Iterations  =  29
                                  Total H  = 1.110034e+02
                                  Total O  = 5.809483e+01

----------------------------Distribution of species----------------------------

                                               Log       Log       Log    mole V
   Species          Molality    Activity  Molality  Activity     Gamma   cm³/mol

   H+              7.835e-04   7.602e-04    -3.106    -3.119    -0.013      0.00
   OH-             1.413e-11   1.369e-11   -10.850   -10.864    -0.014     -3.91
   H2O             5.551e+01   9.784e-01     1.744    -0.009     0.000     18.02
C(-4)         0.000e+00
   CH4             0.000e+00   0.000e+00  -119.292  -119.292     0.000     35.53
C(4)          1.297e+00
   CO2             1.245e+00   1.246e+00     0.095     0.095     0.000     34.73
   (CO2)2          2.526e-02   2.527e-02    -1.597    -1.597     0.000     68.63
   HCO3-           7.835e-04   7.594e-04    -3.106    -3.120    -0.014     24.72
   CO3-2           5.666e-11   5.000e-11   -10.247   -10.301    -0.054     -4.19
H(0)          1.570e-39
   H2              7.852e-40   7.853e-40   -39.105   -39.105     0.000     15.03
O(0)          1.275e-14
   O2              6.375e-15   6.376e-15   -14.196   -14.195     0.000     30.32

------------------------------Saturation indices-------------------------------

  Phase               SI** log IAP   log K(298 K,  56 atm)

  CH4(g)         -116.46   -119.29   -2.84  CH4
  CO2(g)            1.60      0.10   -1.50  CO2	 Pressure  56.0 atm, phi 0.707
  H2(g)           -35.99    -39.10   -3.11  H2
  H2O(g)           -1.49     -0.01    1.49  H2O	 Pressure   0.1 atm, phi 0.494
  O2(g)           -11.27    -14.20   -2.92  O2

**For a gas, SI = log10(fugacity). Fugacity = pressure * phi / 1 atm.
  For ideal gases, phi = 1.

Reaction step 6.

Using solution 1.	pH 7 charge
Using gas phase 6.	
Using reaction 1.	

Reaction 1.	

	  1.038e+00 moles of the following reaction have been added:

	                 Relative
	Reactant            moles

	CO2                  1.00000

	                 Relative
	Element             moles
	C                    1.00000
	O                    2.00000

-----------------------------------Gas phase-----------------------------------

Total pressure: 61.23      atmospheres          (Peng-Robinson calculation)
    Gas volume:   1.00e+00 liters
  Molar volume:   2.05e-01 liters/mole
   P * Vm / RT:  0.51250  (Compressibility Factor Z) 

                                                        Moles in gas
                                            ----------------------------------
Component         log P           P    phi     Initial       Final       Delta

CO2(g)             1.79   6.115e+01  0.680   3.896e+00   4.877e+00   9.814e-01
H2O(g)            -1.13   7.363e-02  0.436   4.505e-03   5.872e-03   1.367e-03

-----------------------------Solution composition------------------------------

	Elements           Molality       Moles

	C                 1.354e+00   1.354e+00

----------------------------Description of solution----------------------------

                                       pH  =   3.109      Charge balance
                                       pe  =  14.895      Adjusted to redox equilibrium
      Specific Conductance (µS/cm,  25°C)  = 279
                          Density (g/cm³)  =   1.01180
                               Volume (L)  =   1.04711
                        Viscosity (mPa s)  =   0.98196
                        Activity of water  =   0.977
                 Ionic strength (mol/kgw)  =   8.022e-04
                       Mass of water (kg)  =   9.999e-01
                 Total alkalinity (eq/kg)  =   1.216e-09
                       Total CO2 (mol/kg)  =   1.354e+00
                         Temperature (°C)  =  25.00
                           Pressure (atm)  = 61.23
                  Electrical balance (eq)  =  -1.215e-09
 Percent error, 100*(Cat-|An|)/(Cat+|An|)  =  -0.00
                               Iterations  =  33
                                  Total H  = 1.110007e+02
                                  Total O  = 5.820765e+01

----------------------------Distribution of species----------------------------

                                               Log       Log       Log    mole V
   Species          Molality    Activity  Molality  Activity     Gamma   cm³/mol

   H+              8.022e-04   7.780e-04    -3.096    -3.109    -0.013      0.00
   OH-             1.386e-11   1.342e-11   -10.858   -10.872    -0.014     -3.89
   H2O             5.551e+01   9.774e-01     1.744    -0.010     0.000     18.02
C(-4)         0.000e+00
   CH4             0.000e+00   0.000e+00  -119.547  -119.547     0.000     35.54
C(4)          1.354e+00
   CO2             1.298e+00   1.298e+00     0.113     0.113     0.000     34.73
   (CO2)2          2.745e-02   2.746e-02    -1.561    -1.561     0.000     68.62
   HCO3-           8.022e-04   7.773e-04    -3.096    -3.109    -0.014     24.73
   CO3-2           5.708e-11   5.030e-11   -10.244   -10.298    -0.055     -4.14
H(0)          1.340e-39
   H2              6.699e-40   6.701e-40   -39.174   -39.174     0.000     15.03
O(0)          1.739e-14
   O2              8.696e-15   8.697e-15   -14.061   -14.061     0.000     30.31

------------------------------Saturation indices-------------------------------

  Phase               SI** log IAP   log K(298 K,  61 atm)

  CH4(g)         -116.71   -119.55   -2.84  CH4
  CO2(g)            1.62      0.11   -1.51  CO2	 Pressure  61.2 atm, phi 0.680
  H2(g)           -36.06    -39.17   -3.12  H2
  H2O(g)           -1.49     -0.01    1.48  H2O	 Pressure   0.1 atm, phi 0.436
  O2(g)           -11.14    -14.06   -2.92  O2

**For a gas, SI = log10(fugacity). Fugacity = pressure * phi / 1 atm.
  For ideal gases, phi = 1.

Reaction step 7.

Using solution 1.	pH 7 charge
Using gas phase 6.	
Using reaction 1.	

Reaction 1.	

	  1.038e+00 moles of the following reaction have been added:

	                 Relative
	Reactant            moles

	CO2                  1.00000

	                 Relative
	Element             moles
	C                    1.00000
	O                    2.00000

-----------------------------------Gas phase-----------------------------------

Total pressure: 64.15      atmospheres          (Peng-Robinson calculation)
    Gas volume:   1.00e+00 liters
  Molar volume:   1.70e-01 liters/mole
   P * Vm / RT:  0.44461  (Compressibility Factor Z) 

                                                        Moles in gas
                                            ----------------------------------
Component         log P           P    phi     Initial       Final       Delta

CO2(g)             1.81   6.407e+01  0.663   4.877e+00   5.889e+00   1.012e+00
H2O(g)            -1.08   8.249e-02  0.390   5.872e-03   7.583e-03   1.711e-03

-----------------------------Solution composition------------------------------

	Elements           Molality       Moles

	C                 1.380e+00   1.380e+00

----------------------------Description of solution----------------------------

                                       pH  =   3.104      Charge balance
                                       pe  =  14.847      Adjusted to redox equilibrium
      Specific Conductance (µS/cm,  25°C)  = 281
                          Density (g/cm³)  =   1.01216
                               Volume (L)  =   1.04785
                        Viscosity (mPa s)  =   0.98370
                        Activity of water  =   0.977
                 Ionic strength (mol/kgw)  =   8.109e-04
                       Mass of water (kg)  =   9.998e-01
                 Total alkalinity (eq/kg)  =   1.216e-09
                       Total CO2 (mol/kg)  =   1.380e+00
                         Temperature (°C)  =  25.00
                           Pressure (atm)  = 64.15
                  Electrical balance (eq)  =  -1.215e-09
 Percent error, 100*(Cat-|An|)/(Cat+|An|)  =  -0.00
                               Iterations  =  36
                                  Total H  = 1.109973e+02
                                  Total O  = 5.825810e+01

----------------------------Distribution of species----------------------------

                                               Log       Log       Log    mole V
   Species          Molality    Activity  Molality  Activity     Gamma   cm³/mol

   H+              8.109e-04   7.863e-04    -3.091    -3.104    -0.013      0.00
   OH-             1.374e-11   1.331e-11   -10.862   -10.876    -0.014     -3.88
   H2O             5.551e+01   9.770e-01     1.744    -0.010     0.000     18.02
C(-4)         0.000e+00
   CH4             0.000e+00   0.000e+00  -119.122  -119.122     0.000     35.54
C(4)          1.380e+00
   CO2             1.322e+00   1.322e+00     0.121     0.121     0.000     34.73
   (CO2)2          2.848e-02   2.849e-02    -1.545    -1.545     0.000     68.61
   HCO3-           8.109e-04   7.855e-04    -3.091    -3.105    -0.014     24.74
   CO3-2           5.731e-11   5.047e-11   -10.242   -10.297    -0.055     -4.12
H(0)          1.702e-39
   H2              8.508e-40   8.510e-40   -39.070   -39.070     0.000     15.03
O(0)          1.074e-14
   O2              5.371e-15   5.372e-15   -14.270   -14.270     0.000     30.31

------------------------------Saturation indices-------------------------------

  Phase               SI** log IAP   log K(298 K,  64 atm)

  CH4(g)         -116.28   -119.12   -2.84  CH4
  CO2(g)            1.63      0.12   -1.51  CO2	 Pressure  64.1 atm, phi 0.663
  H2(g)           -35.95    -39.07   -3.12  H2
  H2O(g)           -1.49     -0.01    1.48  H2O	 Pressure   0.1 atm, phi 0.390
  O2(g)           -11.34    -14.27   -2.93  O2

**For a gas, SI = log10(fugacity). Fugacity = pressure * phi / 1 atm.
  For ideal gases, phi = 1.

Reaction step 8.

Using solution 1.	pH 7 charge
Using gas phase 6.	
Using reaction 1.	

Reaction 1.	

	  1.038e+00 moles of the following reaction have been added:

	                 Relative
	Reactant            moles

	CO2                  1.00000

	                 Relative
	Element             moles
	C                    1.00000
	O                    2.00000

-----------------------------------Gas phase-----------------------------------

Total pressure: 65.18      atmospheres          (Peng-Robinson calculation)
    Gas volume:   1.00e+00 liters
  Molar volume:   1.44e-01 liters/mole
   P * Vm / RT:  0.38445  (Compressibility Factor Z) 

                                                        Moles in gas
                                            ----------------------------------
Component         log P           P    phi     Initial       Final       Delta

CO2(g)             1.81   6.509e+01  0.657   5.889e+00   6.920e+00   1.031e+00
H2O(g)            -1.04   9.100e-02  0.354   7.583e-03   9.674e-03   2.091e-03

-----------------------------Solution composition------------------------------

	Elements           Molality       Moles

	C                 1.388e+00   1.387e+00

----------------------------Description of solution----------------------------

                                       pH  =   3.103      Charge balance
                                       pe  =  14.866      Adjusted to redox equilibrium
      Specific Conductance (µS/cm,  25°C)  = 282
                          Density (g/cm³)  =   1.01227
                               Volume (L)  =   1.04803
                        Viscosity (mPa s)  =   0.98421
                        Activity of water  =   0.977
                 Ionic strength (mol/kgw)  =   8.135e-04
                       Mass of water (kg)  =   9.998e-01
                 Total alkalinity (eq/kg)  =   1.216e-09
                       Total CO2 (mol/kg)  =   1.388e+00
                         Temperature (°C)  =  25.00
                           Pressure (atm)  = 65.18
                  Electrical balance (eq)  =  -1.215e-09
 Percent error, 100*(Cat-|An|)/(Cat+|An|)  =  -0.00
                               Iterations  =  44
                                  Total H  = 1.109931e+02
                                  Total O  = 5.827119e+01

----------------------------Distribution of species----------------------------

                                               Log       Log       Log    mole V
   Species          Molality    Activity  Molality  Activity     Gamma   cm³/mol

   H+              8.135e-04   7.888e-04    -3.090    -3.103    -0.013      0.00
   OH-             1.371e-11   1.328e-11   -10.863   -10.877    -0.014     -3.87
   H2O             5.551e+01   9.769e-01     1.744    -0.010     0.000     18.02
C(-4)         0.000e+00
   CH4             0.000e+00   0.000e+00  -119.260  -119.259     0.000     35.54
C(4)          1.388e+00
   CO2             1.329e+00   1.329e+00     0.124     0.124     0.000     34.72
   (CO2)2          2.879e-02   2.879e-02    -1.541    -1.541     0.000     68.61
   HCO3-           8.135e-04   7.880e-04    -3.090    -3.103    -0.014     24.75
   CO3-2           5.739e-11   5.054e-11   -10.241   -10.296    -0.055     -4.11
H(0)          1.570e-39
   H2              7.850e-40   7.851e-40   -39.105   -39.105     0.000     15.03
O(0)          1.260e-14
   O2              6.301e-15   6.303e-15   -14.201   -14.200     0.000     30.31

------------------------------Saturation indices-------------------------------

  Phase               SI** log IAP   log K(298 K,  65 atm)

  CH4(g)         -116.42   -119.26   -2.84  CH4
  CO2(g)            1.63      0.12   -1.51  CO2	 Pressure  65.1 atm, phi 0.657
  H2(g)           -35.99    -39.11   -3.12  H2
  H2O(g)           -1.49     -0.01    1.48  H2O	 Pressure   0.1 atm, phi 0.354
  O2(g)           -11.27    -14.20   -2.93  O2

**For a gas, SI = log10(fugacity). Fugacity = pressure * phi / 1 atm.
  For ideal gases, phi = 1.

Reaction step 9.

Using solution 1.	pH 7 charge
Using gas phase 6.	
Using reaction 1.	

Reaction 1.	

	  1.038e+00 moles of the following reaction have been added:

	                 Relative
	Reactant            moles

	CO2                  1.00000

	                 Relative
	Element             moles
	C                    1.00000
	O                    2.00000

-----------------------------------Gas phase-----------------------------------

Total pressure: 65.19      atmospheres          (Peng-Robinson calculation)
    Gas volume:   1.00e+00 liters
  Molar volume:   1.25e-01 liters/mole
   P * Vm / RT:  0.33429  (Compressibility Factor Z) 

                                                        Moles in gas
                                            ----------------------------------
Component         log P           P    phi     Initial       Final       Delta

CO2(g)             1.81   6.510e+01  0.657   6.920e+00   7.959e+00   1.039e+00
H2O(g)            -1.00   9.944e-02  0.324   9.674e-03   1.216e-02   2.484e-03

-----------------------------Solution composition------------------------------

	Elements           Molality       Moles

	C                 1.388e+00   1.387e+00

----------------------------Description of solution----------------------------

                                       pH  =   3.103      Charge balance
                                       pe  =  14.892      Adjusted to redox equilibrium
      Specific Conductance (µS/cm,  25°C)  = 282
                          Density (g/cm³)  =   1.01227
                               Volume (L)  =   1.04798
                        Viscosity (mPa s)  =   0.98421
                        Activity of water  =   0.977
                 Ionic strength (mol/kgw)  =   8.135e-04
                       Mass of water (kg)  =   9.998e-01
                 Total alkalinity (eq/kg)  =   1.216e-09
                       Total CO2 (mol/kg)  =   1.388e+00
                         Temperature (°C)  =  25.00
                           Pressure (atm)  = 65.19
                  Electrical balance (eq)  =  -1.215e-09
 Percent error, 100*(Cat-|An|)/(Cat+|An|)  =  -0.00
                               Iterations  =  43
                                  Total H  = 1.109881e+02
                                  Total O  = 5.826850e+01

----------------------------Distribution of species----------------------------

                                               Log       Log       Log    mole V
   Species          Molality    Activity  Molality  Activity     Gamma   cm³/mol

   H+              8.135e-04   7.888e-04    -3.090    -3.103    -0.013      0.00
   OH-             1.371e-11   1.328e-11   -10.863   -10.877    -0.014     -3.87
   H2O             5.551e+01   9.769e-01     1.744    -0.010     0.000     18.02
C(-4)         0.000e+00
   CH4             0.000e+00   0.000e+00  -119.468  -119.468     0.000     35.54
C(4)          1.388e+00
   CO2             1.329e+00   1.329e+00     0.124     0.124     0.000     34.72
   (CO2)2          2.879e-02   2.879e-02    -1.541    -1.541     0.000     68.61
   HCO3-           8.135e-04   7.880e-04    -3.090    -3.103    -0.014     24.75
   CO3-2           5.739e-11   5.054e-11   -10.241   -10.296    -0.055     -4.11
H(0)          1.392e-39
   H2              6.961e-40   6.962e-40   -39.157   -39.157     0.000     15.03
O(0)          1.603e-14
   O2              8.014e-15   8.015e-15   -14.096   -14.096     0.000     30.31

------------------------------Saturation indices-------------------------------

  Phase               SI** log IAP   log K(298 K,  65 atm)

  CH4(g)         -116.63   -119.47   -2.84  CH4
  CO2(g)            1.63      0.12   -1.51  CO2	 Pressure  65.1 atm, phi 0.657
  H2(g)           -36.04    -39.16   -3.12  H2
  H2O(g)           -1.49     -0.01    1.48  H2O	 Pressure   0.1 atm, phi 0.324
  O2(g)           -11.17    -14.10   -2.93  O2

**For a gas, SI = log10(fugacity). Fugacity = pressure * phi / 1 atm.
  For ideal gases, phi = 1.

Reaction step 10.

Using solution 1.	pH 7 charge
Using gas phase 6.	
Using reaction 1.	

Reaction 1.	

	  1.038e+00 moles of the following reaction have been added:

	                 Relative
	Reactant            moles

	CO2                  1.00000

	                 Relative
	Element             moles
	C                    1.00000
	O                    2.00000

-----------------------------------Gas phase-----------------------------------

Total pressure: 65.18      atmospheres          (Peng-Robinson calculation)
    Gas volume:   1.00e+00 liters
  Molar volume:   1.11e-01 liters/mole
   P * Vm / RT:  0.29557  (Compressibility Factor Z) 

                                                        Moles in gas
                                            ----------------------------------
Component         log P           P    phi     Initial       Final       Delta

CO2(g)             1.81   6.507e+01  0.657   7.959e+00   8.998e+00   1.039e+00
H2O(g)            -0.96   1.087e-01  0.296   1.216e-02   1.503e-02   2.876e-03

-----------------------------Solution composition------------------------------

	Elements           Molality       Moles

	C                 1.387e+00   1.386e+00

----------------------------Description of solution----------------------------

                                       pH  =   3.103      Charge balance
                                       pe  =  14.749      Adjusted to redox equilibrium
      Specific Conductance (µS/cm,  25°C)  = 282
                          Density (g/cm³)  =   1.01226
                               Volume (L)  =   1.04789
                        Viscosity (mPa s)  =   0.98415
                        Activity of water  =   0.977
                 Ionic strength (mol/kgw)  =   8.132e-04
                       Mass of water (kg)  =   9.997e-01
                 Total alkalinity (eq/kg)  =   1.216e-09
                       Total CO2 (mol/kg)  =   1.387e+00
                         Temperature (°C)  =  25.00
                           Pressure (atm)  = 65.18
                  Electrical balance (eq)  =  -1.215e-09
 Percent error, 100*(Cat-|An|)/(Cat+|An|)  =  -0.00
                               Iterations  =  47
                                  Total H  = 1.109824e+02
                                  Total O  = 5.826370e+01

----------------------------Distribution of species----------------------------

                                               Log       Log       Log    mole V
   Species          Molality    Activity  Molality  Activity     Gamma   cm³/mol

   H+              8.132e-04   7.886e-04    -3.090    -3.103    -0.013      0.00
   OH-             1.372e-11   1.328e-11   -10.863   -10.877    -0.014     -3.87
   H2O             5.551e+01   9.769e-01     1.744    -0.010     0.000     18.02
C(-4)         0.000e+00
   CH4             0.000e+00   0.000e+00  -118.323  -118.323     0.000     35.54
C(4)          1.387e+00
   CO2             1.328e+00   1.329e+00     0.123     0.123     0.000     34.72
   (CO2)2          2.875e-02   2.876e-02    -1.541    -1.541     0.000     68.61
   HCO3-           8.132e-04   7.878e-04    -3.090    -3.104    -0.014     24.75
   CO3-2           5.738e-11   5.054e-11   -10.241   -10.296    -0.055     -4.11
H(0)          2.692e-39
   H2              1.346e-39   1.346e-39   -38.871   -38.871     0.000     15.03
O(0)          4.288e-15
   O2              2.144e-15   2.144e-15   -14.669   -14.669     0.000     30.31

------------------------------Saturation indices-------------------------------

  Phase               SI** log IAP   log K(298 K,  65 atm)

  CH4(g)         -115.48   -118.32   -2.84  CH4
  CO2(g)            1.63      0.12   -1.51  CO2	 Pressure  65.1 atm, phi 0.657
  H2(g)           -35.75    -38.87   -3.12  H2
  H2O(g)           -1.49     -0.01    1.48  H2O	 Pressure   0.1 atm, phi 0.296
  O2(g)           -11.74    -14.67   -2.93  O2

**For a gas, SI = log10(fugacity). Fugacity = pressure * phi / 1 atm.
  For ideal gases, phi = 1.

Reaction step 11.

Using solution 1.	pH 7 charge
Using gas phase 6.	
Using reaction 1.	

Reaction 1.	

	  1.038e+00 moles of the following reaction have been added:

	                 Relative
	Reactant            moles

	CO2                  1.00000

	                 Relative
	Element             moles
	C                    1.00000
	O                    2.00000

-----------------------------------Gas phase-----------------------------------

Total pressure: 65.16      atmospheres          (Peng-Robinson calculation)
    Gas volume:   1.00e+00 liters
  Molar volume:   9.94e-02 liters/mole
   P * Vm / RT:  0.26483  (Compressibility Factor Z) 

                                                        Moles in gas
                                            ----------------------------------
Component         log P           P    phi     Initial       Final       Delta

CO2(g)             1.81   6.504e+01  0.657   8.998e+00   1.004e+01   1.040e+00
H2O(g)            -0.92   1.189e-01  0.271   1.503e-02   1.835e-02   3.314e-03

-----------------------------Solution composition------------------------------

	Elements           Molality       Moles

	C                 1.385e+00   1.384e+00

----------------------------Description of solution----------------------------

                                       pH  =   3.103      Charge balance
                                       pe  =  14.801      Adjusted to redox equilibrium
      Specific Conductance (µS/cm,  25°C)  = 282
                          Density (g/cm³)  =   1.01224
                               Volume (L)  =   1.04777
                        Viscosity (mPa s)  =   0.98403
                        Activity of water  =   0.977
                 Ionic strength (mol/kgw)  =   8.127e-04
                       Mass of water (kg)  =   9.997e-01
                 Total alkalinity (eq/kg)  =   1.216e-09
                       Total CO2 (mol/kg)  =   1.385e+00
                         Temperature (°C)  =  25.00
                           Pressure (atm)  = 65.16
                  Electrical balance (eq)  =  -1.215e-09
 Percent error, 100*(Cat-|An|)/(Cat+|An|)  =  -0.00
                               Iterations  =  42
                                  Total H  = 1.109757e+02
                                  Total O  = 5.825676e+01

----------------------------Distribution of species----------------------------

                                               Log       Log       Log    mole V
   Species          Molality    Activity  Molality  Activity     Gamma   cm³/mol

   H+              8.127e-04   7.881e-04    -3.090    -3.103    -0.013      0.00
   OH-             1.372e-11   1.329e-11   -10.862   -10.877    -0.014     -3.87
   H2O             5.551e+01   9.769e-01     1.744    -0.010     0.000     18.02
C(-4)         0.000e+00
   CH4             0.000e+00   0.000e+00  -118.746  -118.745     0.000     35.54
C(4)          1.385e+00
   CO2             1.327e+00   1.327e+00     0.123     0.123     0.000     34.72
   (CO2)2          2.868e-02   2.869e-02    -1.542    -1.542     0.000     68.61
   HCO3-           8.127e-04   7.873e-04    -3.090    -3.104    -0.014     24.75
   CO3-2           5.738e-11   5.053e-11   -10.241   -10.296    -0.055     -4.11
H(0)          2.112e-39
   H2              1.056e-39   1.056e-39   -38.976   -38.976     0.000     15.03
O(0)          6.968e-15
   O2              3.484e-15   3.484e-15   -14.458   -14.458     0.000     30.31

------------------------------Saturation indices-------------------------------

  Phase               SI** log IAP   log K(298 K,  65 atm)

  CH4(g)         -115.90   -118.75   -2.84  CH4
  CO2(g)            1.63      0.12   -1.51  CO2	 Pressure  65.0 atm, phi 0.657
  H2(g)           -35.86    -38.98   -3.12  H2
  H2O(g)           -1.49     -0.01    1.48  H2O	 Pressure   0.1 atm, phi 0.271
  O2(g)           -11.53    -14.46   -2.93  O2

**For a gas, SI = log10(fugacity). Fugacity = pressure * phi / 1 atm.
  For ideal gases, phi = 1.

Reaction step 12.

Using solution 1.	pH 7 charge
Using gas phase 6.	
Using reaction 1.	

Reaction 1.	

	  1.038e+00 moles of the following reaction have been added:

	                 Relative
	Reactant            moles

	CO2                  1.00000

	                 Relative
	Element             moles
	C                    1.00000
	O                    2.00000

-----------------------------------Gas phase-----------------------------------

Total pressure: 65.15      atmospheres          (Peng-Robinson calculation)
    Gas volume:   1.00e+00 liters
  Molar volume:   9.01e-02 liters/mole
   P * Vm / RT:  0.23985  (Compressibility Factor Z) 

                                                        Moles in gas
                                            ----------------------------------
Component         log P           P    phi     Initial       Final       Delta

CO2(g)             1.81   6.502e+01  0.656   1.004e+01   1.108e+01   1.041e+00
H2O(g)            -0.89   1.299e-01  0.248   1.835e-02   2.214e-02   3.797e-03

-----------------------------Solution composition------------------------------

	Elements           Molality       Moles

	C                 1.383e+00   1.382e+00

----------------------------Description of solution----------------------------

                                       pH  =   3.104      Charge balance
                                       pe  =  14.893      Adjusted to redox equilibrium
      Specific Conductance (µS/cm,  25°C)  = 282
                          Density (g/cm³)  =   1.01222
                               Volume (L)  =   1.04762
                        Viscosity (mPa s)  =   0.98387
                        Activity of water  =   0.977
                 Ionic strength (mol/kgw)  =   8.121e-04
                       Mass of water (kg)  =   9.996e-01
                 Total alkalinity (eq/kg)  =   1.216e-09
                       Total CO2 (mol/kg)  =   1.383e+00
                         Temperature (°C)  =  25.00
                           Pressure (atm)  = 65.15
                  Electrical balance (eq)  =  -1.215e-09
 Percent error, 100*(Cat-|An|)/(Cat+|An|)  =  -0.00
                               Iterations  =  46
                                  Total H  = 1.109681e+02
                                  Total O  = 5.824814e+01

----------------------------Distribution of species----------------------------

                                               Log       Log       Log    mole V
   Species          Molality    Activity  Molality  Activity     Gamma   cm³/mol

   H+              8.121e-04   7.875e-04    -3.090    -3.104    -0.013      0.00
   OH-             1.374e-11   1.330e-11   -10.862   -10.876    -0.014     -3.87
   H2O             5.551e+01   9.770e-01     1.744    -0.010     0.000     18.02
C(-4)         0.000e+00
   CH4             0.000e+00   0.000e+00  -119.484  -119.484     0.000     35.54
C(4)          1.383e+00
   CO2             1.325e+00   1.325e+00     0.122     0.122     0.000     34.72
   (CO2)2          2.859e-02   2.859e-02    -1.544    -1.544     0.000     68.61
   HCO3-           8.121e-04   7.867e-04    -3.090    -3.104    -0.014     24.75
   CO3-2           5.738e-11   5.053e-11   -10.241   -10.296    -0.055     -4.11
H(0)          1.381e-39
   H2              6.906e-40   6.907e-40   -39.161   -39.161     0.000     15.03
O(0)          1.629e-14
   O2              8.143e-15   8.144e-15   -14.089   -14.089     0.000     30.31

------------------------------Saturation indices-------------------------------

  Phase               SI** log IAP   log K(298 K,  65 atm)

  CH4(g)         -116.64   -119.48   -2.84  CH4
  CO2(g)            1.63      0.12   -1.51  CO2	 Pressure  65.0 atm, phi 0.656
  H2(g)           -36.04    -39.16   -3.12  H2
  H2O(g)           -1.49     -0.01    1.48  H2O	 Pressure   0.1 atm, phi 0.248
  O2(g)           -11.16    -14.09   -2.93  O2

**For a gas, SI = log10(fugacity). Fugacity = pressure * phi / 1 atm.
  For ideal gases, phi = 1.

Reaction step 13.

Using solution 1.	pH 7 charge
Using gas phase 6.	
Using reaction 1.	

Reaction 1.	

	  1.038e+00 moles of the following reaction have been added:

	                 Relative
	Reactant            moles

	CO2                  1.00000

	                 Relative
	Element             moles
	C                    1.00000
	O                    2.00000

-----------------------------------Gas phase-----------------------------------

Total pressure: 65.13      atmospheres          (Peng-Robinson calculation)
    Gas volume:   1.00e+00 liters
  Molar volume:   8.23e-02 liters/mole
   P * Vm / RT:  0.21914  (Compressibility Factor Z) 

                                                        Moles in gas
                                            ----------------------------------
Component         log P           P    phi     Initial       Final       Delta

CO2(g)             1.81   6.498e+01  0.655   1.108e+01   1.212e+01   1.041e+00
H2O(g)            -0.85   1.419e-01  0.227   2.214e-02   2.647e-02   4.323e-03

-----------------------------Solution composition------------------------------

	Elements           Molality       Moles

	C                 1.380e+00   1.379e+00

----------------------------Description of solution----------------------------

                                       pH  =   3.104      Charge balance
                                       pe  =  14.886      Adjusted to redox equilibrium
      Specific Conductance (µS/cm,  25°C)  = 282
                          Density (g/cm³)  =   1.01220
                               Volume (L)  =   1.04745
                        Viscosity (mPa s)  =   0.98370
                        Activity of water  =   0.977
                 Ionic strength (mol/kgw)  =   8.114e-04
                       Mass of water (kg)  =   9.995e-01
                 Total alkalinity (eq/kg)  =   1.216e-09
                       Total CO2 (mol/kg)  =   1.380e+00
                         Temperature (°C)  =  25.00
                           Pressure (atm)  = 65.13
                  Electrical balance (eq)  =  -1.215e-09
 Percent error, 100*(Cat-|An|)/(Cat+|An|)  =  -0.00
                               Iterations  =  45
                                  Total H  = 1.109595e+02
                                  Total O  = 5.823866e+01

----------------------------Distribution of species----------------------------

                                               Log       Log       Log    mole V
   Species          Molality    Activity  Molality  Activity     Gamma   cm³/mol

   H+              8.114e-04   7.868e-04    -3.091    -3.104    -0.013      0.00
   OH-             1.375e-11   1.331e-11   -10.862   -10.876    -0.014     -3.87
   H2O             5.551e+01   9.770e-01     1.744    -0.010     0.000     18.02
C(-4)         0.000e+00
   CH4             0.000e+00   0.000e+00  -119.430  -119.430     0.000     35.54
C(4)          1.380e+00
   CO2             1.322e+00   1.322e+00     0.121     0.121     0.000     34.72
   (CO2)2          2.849e-02   2.850e-02    -1.545    -1.545     0.000     68.61
   HCO3-           8.114e-04   7.860e-04    -3.091    -3.105    -0.014     24.75
   CO3-2           5.737e-11   5.053e-11   -10.241   -10.296    -0.055     -4.11
H(0)          1.425e-39
   H2              7.125e-40   7.126e-40   -39.147   -39.147     0.000     15.03
O(0)          1.530e-14
   O2              7.652e-15   7.653e-15   -14.116   -14.116     0.000     30.31

------------------------------Saturation indices-------------------------------

  Phase               SI** log IAP   log K(298 K,  65 atm)

  CH4(g)         -116.59   -119.43   -2.84  CH4
  CO2(g)            1.63      0.12   -1.51  CO2	 Pressure  65.0 atm, phi 0.655
  H2(g)           -36.03    -39.15   -3.12  H2
  H2O(g)           -1.49     -0.01    1.48  H2O	 Pressure   0.1 atm, phi 0.227
  O2(g)           -11.19    -14.12   -2.93  O2

**For a gas, SI = log10(fugacity). Fugacity = pressure * phi / 1 atm.
  For ideal gases, phi = 1.

Reaction step 14.

Using solution 1.	pH 7 charge
Using gas phase 6.	
Using reaction 1.	

Reaction 1.	

	  1.038e+00 moles of the following reaction have been added:

	                 Relative
	Reactant            moles

	CO2                  1.00000

	                 Relative
	Element             moles
	C                    1.00000
	O                    2.00000

-----------------------------------Gas phase-----------------------------------

Total pressure: 65.11      atmospheres          (Peng-Robinson calculation)
    Gas volume:   1.00e+00 liters
  Molar volume:   7.58e-02 liters/mole
   P * Vm / RT:  0.20171  (Compressibility Factor Z) 

                                                        Moles in gas
                                            ----------------------------------
Component         log P           P    phi     Initial       Final       Delta

CO2(g)             1.81   6.495e+01  0.654   1.212e+01   1.316e+01   1.041e+00
H2O(g)            -0.81   1.548e-01  0.208   2.647e-02   3.136e-02   4.891e-03

-----------------------------Solution composition------------------------------

	Elements           Molality       Moles

	C                 1.378e+00   1.377e+00

----------------------------Description of solution----------------------------

                                       pH  =   3.104      Charge balance
                                       pe  =  14.919      Adjusted to redox equilibrium
      Specific Conductance (µS/cm,  25°C)  = 281
                          Density (g/cm³)  =   1.01218
                               Volume (L)  =   1.04729
                        Viscosity (mPa s)  =   0.98356
                        Activity of water  =   0.977
                 Ionic strength (mol/kgw)  =   8.108e-04
                       Mass of water (kg)  =   9.994e-01
                 Total alkalinity (eq/kg)  =   1.216e-09
                       Total CO2 (mol/kg)  =   1.378e+00
                         Temperature (°C)  =  25.00
                           Pressure (atm)  = 65.11
                  Electrical balance (eq)  =  -1.215e-09
 Percent error, 100*(Cat-|An|)/(Cat+|An|)  =  -0.00
                               Iterations  =  48
                                  Total H  = 1.109497e+02
                                  Total O  = 5.822920e+01

----------------------------Distribution of species----------------------------

                                               Log       Log       Log    mole V
   Species          Molality    Activity  Molality  Activity     Gamma   cm³/mol

   H+              8.108e-04   7.862e-04    -3.091    -3.104    -0.013      0.00
   OH-             1.376e-11   1.332e-11   -10.861   -10.875    -0.014     -3.87
   H2O             5.551e+01   9.770e-01     1.744    -0.010     0.000     18.02
C(-4)         0.000e+00
   CH4             0.000e+00   0.000e+00  -119.700  -119.700     0.000     35.54
C(4)          1.378e+00
   CO2             1.320e+00   1.321e+00     0.121     0.121     0.000     34.72
   (CO2)2          2.841e-02   2.841e-02    -1.547    -1.547     0.000     68.61
   HCO3-           8.108e-04   7.854e-04    -3.091    -3.105    -0.014     24.75
   CO3-2           5.737e-11   5.053e-11   -10.241   -10.296    -0.055     -4.11
H(0)          1.221e-39
   H2              6.104e-40   6.105e-40   -39.214   -39.214     0.000     15.03
O(0)          2.085e-14
   O2              1.043e-14   1.043e-14   -13.982   -13.982     0.000     30.31

------------------------------Saturation indices-------------------------------

  Phase               SI** log IAP   log K(298 K,  65 atm)

  CH4(g)         -116.86   -119.70   -2.84  CH4
  CO2(g)            1.63      0.12   -1.51  CO2	 Pressure  65.0 atm, phi 0.654
  H2(g)           -36.10    -39.21   -3.12  H2
  H2O(g)           -1.49     -0.01    1.48  H2O	 Pressure   0.2 atm, phi 0.208
  O2(g)           -11.05    -13.98   -2.93  O2

**For a gas, SI = log10(fugacity). Fugacity = pressure * phi / 1 atm.
  For ideal gases, phi = 1.

Reaction step 15.

Using solution 1.	pH 7 charge
Using gas phase 6.	
Using reaction 1.	

Reaction 1.	

	  1.038e+00 moles of the following reaction have been added:

	                 Relative
	Reactant            moles

	CO2                  1.00000

	                 Relative
	Element             moles
	C                    1.00000
	O                    2.00000

-----------------------------------Gas phase-----------------------------------

Total pressure: 65.08      atmospheres          (Peng-Robinson calculation)
    Gas volume:   1.00e+00 liters
  Molar volume:   7.02e-02 liters/mole
   P * Vm / RT:  0.18683  (Compressibility Factor Z) 

                                                        Moles in gas
                                            ----------------------------------
Component         log P           P    phi     Initial       Final       Delta

CO2(g)             1.81   6.491e+01  0.654   1.316e+01   1.420e+01   1.040e+00
H2O(g)            -0.77   1.685e-01  0.191   3.136e-02   3.685e-02   5.496e-03

-----------------------------Solution composition------------------------------

	Elements           Molality       Moles

	C                 1.377e+00   1.376e+00

----------------------------Description of solution----------------------------

                                       pH  =   3.105      Charge balance
                                       pe  =  14.921      Adjusted to redox equilibrium
      Specific Conductance (µS/cm,  25°C)  = 281
                          Density (g/cm³)  =   1.01217
                               Volume (L)  =   1.04714
                        Viscosity (mPa s)  =   0.98346
                        Activity of water  =   0.977
                 Ionic strength (mol/kgw)  =   8.104e-04
                       Mass of water (kg)  =   9.993e-01
                 Total alkalinity (eq/kg)  =   1.216e-09
                       Total CO2 (mol/kg)  =   1.377e+00
                         Temperature (°C)  =  25.00
                           Pressure (atm)  = 65.08
                  Electrical balance (eq)  =  -1.215e-09
 Percent error, 100*(Cat-|An|)/(Cat+|An|)  =  -0.00
                               Iterations  =  44
                                  Total H  = 1.109387e+02
                                  Total O  = 5.822068e+01

----------------------------Distribution of species----------------------------

                                               Log       Log       Log    mole V
   Species          Molality    Activity  Molality  Activity     Gamma   cm³/mol

   H+              8.104e-04   7.858e-04    -3.091    -3.105    -0.013      0.00
   OH-             1.376e-11   1.333e-11   -10.861   -10.875    -0.014     -3.87
   H2O             5.551e+01   9.771e-01     1.744    -0.010     0.000     18.02
C(-4)         0.000e+00
   CH4             0.000e+00   0.000e+00  -119.720  -119.720     0.000     35.54
C(4)          1.377e+00
   CO2             1.319e+00   1.319e+00     0.120     0.120     0.000     34.72
   (CO2)2          2.835e-02   2.836e-02    -1.547    -1.547     0.000     68.61
   HCO3-           8.104e-04   7.851e-04    -3.091    -3.105    -0.014     24.75
   CO3-2           5.737e-11   5.053e-11   -10.241   -10.296    -0.055     -4.11
H(0)          1.207e-39
   H2              6.033e-40   6.034e-40   -39.219   -39.219     0.000     15.03
O(0)          2.135e-14
   O2              1.067e-14   1.068e-14   -13.972   -13.972     0.000     30.31

------------------------------Saturation indices-------------------------------

  Phase               SI** log IAP   log K(298 K,  65 atm)

  CH4(g)         -116.88   -119.72   -2.84  CH4
  CO2(g)            1.63      0.12   -1.51  CO2	 Pressure  64.9 atm, phi 0.654
  H2(g)           -36.10    -39.22   -3.12  H2
  H2O(g)           -1.49     -0.01    1.48  H2O	 Pressure   0.2 atm, phi 0.191
  O2(g)           -11.04    -13.97   -2.93  O2

**For a gas, SI = log10(fugacity). Fugacity = pressure * phi / 1 atm.
  For ideal gases, phi = 1.

Reaction step 16.

Using solution 1.	pH 7 charge
Using gas phase 6.	
Using reaction 1.	

Reaction 1.	

	  1.038e+00 moles of the following reaction have been added:

	                 Relative
	Reactant            moles

	CO2                  1.00000

	                 Relative
	Element             moles
	C                    1.00000
	O                    2.00000

-----------------------------------Gas phase-----------------------------------

Total pressure: 67.72      atmospheres          (Peng-Robinson calculation)
    Gas volume:   1.00e+00 liters
  Molar volume:   6.55e-02 liters/mole
   P * Vm / RT:  0.18116  (Compressibility Factor Z) 

                                                        Moles in gas
                                            ----------------------------------
Component         log P           P    phi     Initial       Final       Delta

CO2(g)             1.83   6.753e+01  0.633   1.420e+01   1.524e+01   1.034e+00
H2O(g)            -0.72   1.898e-01  0.170   3.685e-02   4.282e-02   5.965e-03

-----------------------------Solution composition------------------------------

	Elements           Molality       Moles

	C                 1.381e+00   1.380e+00

----------------------------Description of solution----------------------------

                                       pH  =   3.103      Charge balance
                                       pe  =  14.929      Adjusted to redox equilibrium
      Specific Conductance (µS/cm,  25°C)  = 282
                          Density (g/cm³)  =   1.01233
                               Volume (L)  =   1.04707
                        Viscosity (mPa s)  =   0.98375
                        Activity of water  =   0.977
                 Ionic strength (mol/kgw)  =   8.129e-04
                       Mass of water (kg)  =   9.992e-01
                 Total alkalinity (eq/kg)  =   1.216e-09
                       Total CO2 (mol/kg)  =   1.381e+00
                         Temperature (°C)  =  25.00
                           Pressure (atm)  = 67.72
                  Electrical balance (eq)  =  -1.215e-09
 Percent error, 100*(Cat-|An|)/(Cat+|An|)  =  -0.00
                               Iterations  =  35
                                  Total H  = 1.109268e+02
                                  Total O  = 5.822381e+01

----------------------------Distribution of species----------------------------

                                               Log       Log       Log    mole V
   Species          Molality    Activity  Molality  Activity     Gamma   cm³/mol

   H+              8.129e-04   7.883e-04    -3.090    -3.103    -0.013      0.00
   OH-             1.375e-11   1.332e-11   -10.862   -10.876    -0.014     -3.86
   H2O             5.551e+01   9.770e-01     1.744    -0.010     0.000     18.02
C(-4)         0.000e+00
   CH4             0.000e+00   0.000e+00  -119.768  -119.768     0.000     35.55
C(4)          1.381e+00
   CO2             1.323e+00   1.324e+00     0.122     0.122     0.000     34.72
   (CO2)2          2.854e-02   2.854e-02    -1.545    -1.544     0.000     68.61
   HCO3-           8.129e-04   7.875e-04    -3.090    -3.104    -0.014     24.75
   CO3-2           5.755e-11   5.068e-11   -10.240   -10.295    -0.055     -4.09
H(0)          1.172e-39
   H2              5.861e-40   5.862e-40   -39.232   -39.232     0.000     15.04
O(0)          2.256e-14
   O2              1.128e-14   1.128e-14   -13.948   -13.948     0.000     30.30

------------------------------Saturation indices-------------------------------

  Phase               SI** log IAP   log K(298 K,  68 atm)

  CH4(g)         -116.92   -119.77   -2.84  CH4
  CO2(g)            1.63      0.12   -1.51  CO2	 Pressure  67.5 atm, phi 0.633
  H2(g)           -36.11    -39.23   -3.12  H2
  H2O(g)           -1.49     -0.01    1.48  H2O	 Pressure   0.2 atm, phi 0.170
  O2(g)           -11.02    -13.95   -2.93  O2

**For a gas, SI = log10(fugacity). Fugacity = pressure * phi / 1 atm.
  For ideal gases, phi = 1.

Reaction step 17.

Using solution 1.	pH 7 charge
Using gas phase 6.	
Using reaction 1.	

Reaction 1.	

	  1.038e+00 moles of the following reaction have been added:

	                 Relative
	Reactant            moles

	CO2                  1.00000

	                 Relative
	Element             moles
	C                    1.00000
	O                    2.00000

-----------------------------------Gas phase-----------------------------------

Total pressure: 76.44      atmospheres          (Peng-Robinson calculation)
    Gas volume:   1.00e+00 liters
  Molar volume:   6.13e-02 liters/mole
   P * Vm / RT:  0.19158  (Compressibility Factor Z) 

                                                        Moles in gas
                                            ----------------------------------
Component         log P           P    phi     Initial       Final       Delta

CO2(g)             1.88   7.621e+01  0.574   1.524e+01   1.626e+01   1.024e+00
H2O(g)            -0.64   2.299e-01  0.141   4.282e-02   4.904e-02   6.224e-03

-----------------------------Solution composition------------------------------

	Elements           Molality       Moles

	C                 1.396e+00   1.395e+00

----------------------------Description of solution----------------------------

                                       pH  =   3.099      Charge balance
                                       pe  =  14.965      Adjusted to redox equilibrium
      Specific Conductance (µS/cm,  25°C)  = 285
                          Density (g/cm³)  =   1.01284
                               Volume (L)  =   1.04706
                        Viscosity (mPa s)  =   0.98466
                        Activity of water  =   0.977
                 Ionic strength (mol/kgw)  =   8.211e-04
                       Mass of water (kg)  =   9.991e-01
                 Total alkalinity (eq/kg)  =   1.216e-09
                       Total CO2 (mol/kg)  =   1.396e+00
                         Temperature (°C)  =  25.00
                           Pressure (atm)  = 76.44
                  Electrical balance (eq)  =  -1.215e-09
 Percent error, 100*(Cat-|An|)/(Cat+|An|)  =  -0.00
                               Iterations  =  42
                                  Total H  = 1.109143e+02
                                  Total O  = 5.824685e+01

----------------------------Distribution of species----------------------------

                                               Log       Log       Log    mole V
   Species          Molality    Activity  Molality  Activity     Gamma   cm³/mol

   H+              8.211e-04   7.961e-04    -3.086    -3.099    -0.013      0.00
   OH-             1.372e-11   1.328e-11   -10.863   -10.877    -0.014     -3.83
   H2O             5.551e+01   9.767e-01     1.744    -0.010     0.000     18.01
C(-4)         0.000e+00
   CH4             0.000e+00   0.000e+00  -120.025  -120.025     0.000     35.56
C(4)          1.396e+00
   CO2             1.337e+00   1.337e+00     0.126     0.126     0.000     34.71
   (CO2)2          2.914e-02   2.914e-02    -1.536    -1.535     0.000     68.59
   HCO3-           8.211e-04   7.953e-04    -3.086    -3.099    -0.014     24.78
   CO3-2           5.817e-11   5.120e-11   -10.235   -10.291    -0.055     -4.01
H(0)          1.006e-39
   H2              5.032e-40   5.033e-40   -39.298   -39.298     0.000     15.04
O(0)          3.032e-14
   O2              1.516e-14   1.516e-14   -13.819   -13.819     0.000     30.29

------------------------------Saturation indices-------------------------------

  Phase               SI** log IAP   log K(298 K,  76 atm)

  CH4(g)         -117.18   -120.02   -2.85  CH4
  CO2(g)            1.64      0.13   -1.51  CO2	 Pressure  76.2 atm, phi 0.574
  H2(g)           -36.18    -39.30   -3.12  H2
  H2O(g)           -1.49     -0.01    1.48  H2O	 Pressure   0.2 atm, phi 0.141
  O2(g)           -10.89    -13.82   -2.93  O2

**For a gas, SI = log10(fugacity). Fugacity = pressure * phi / 1 atm.
  For ideal gases, phi = 1.

Reaction step 18.

Using solution 1.	pH 7 charge
Using gas phase 6.	
Using reaction 1.	

Reaction 1.	

	  1.038e+00 moles of the following reaction have been added:

	                 Relative
	Reactant            moles

	CO2                  1.00000

	                 Relative
	Element             moles
	C                    1.00000
	O                    2.00000

-----------------------------------Gas phase-----------------------------------

Total pressure: 89.64      atmospheres          (Peng-Robinson calculation)
    Gas volume:   1.00e+00 liters
  Molar volume:   5.77e-02 liters/mole
   P * Vm / RT:  0.21137  (Compressibility Factor Z) 

                                                        Moles in gas
                                            ----------------------------------
Component         log P           P    phi     Initial       Final       Delta

CO2(g)             1.95   8.935e+01  0.505   1.626e+01   1.728e+01   1.019e+00
H2O(g)            -0.54   2.877e-01  0.114   4.904e-02   5.563e-02   6.587e-03

-----------------------------Solution composition------------------------------

	Elements           Molality       Moles

	C                 1.416e+00   1.414e+00

----------------------------Description of solution----------------------------

                                       pH  =   3.093      Charge balance
                                       pe  =  14.954      Adjusted to redox equilibrium
      Specific Conductance (µS/cm,  25°C)  = 289
                          Density (g/cm³)  =   1.01360
                               Volume (L)  =   1.04701
                        Viscosity (mPa s)  =   0.98586
                        Activity of water  =   0.976
                 Ionic strength (mol/kgw)  =   8.328e-04
                       Mass of water (kg)  =   9.990e-01
                 Total alkalinity (eq/kg)  =   1.213e-09
                       Total CO2 (mol/kg)  =   1.416e+00
                         Temperature (°C)  =  25.00
                           Pressure (atm)  = 89.64
                  Electrical balance (eq)  =  -1.212e-09
 Percent error, 100*(Cat-|An|)/(Cat+|An|)  =  -0.00
                               Iterations  =  43
                                  Total H  = 1.109012e+02
                                  Total O  = 5.827925e+01

----------------------------Distribution of species----------------------------

                                               Log       Log       Log    mole V
   Species          Molality    Activity  Molality  Activity     Gamma   cm³/mol

   H+              8.328e-04   8.073e-04    -3.079    -3.093    -0.014      0.00
   OH-             1.369e-11   1.325e-11   -10.864   -10.878    -0.014     -3.79
   H2O             5.551e+01   9.764e-01     1.744    -0.010     0.000     18.00
C(-4)         0.000e+00
   CH4             0.000e+00   0.000e+00  -119.887  -119.887     0.000     35.58
C(4)          1.416e+00
   CO2             1.355e+00   1.355e+00     0.132     0.132     0.000     34.70
   (CO2)2          2.995e-02   2.995e-02    -1.524    -1.524     0.000     68.56
   HCO3-           8.328e-04   8.065e-04    -3.079    -3.093    -0.014     24.82
   CO3-2           5.911e-11   5.199e-11   -10.228   -10.284    -0.056     -3.89
H(0)          1.082e-39
   H2              5.410e-40   5.411e-40   -39.267   -39.267     0.000     15.05
O(0)          2.587e-14
   O2              1.294e-14   1.294e-14   -13.888   -13.888     0.000     30.27

------------------------------Saturation indices-------------------------------

  Phase               SI** log IAP   log K(298 K,  90 atm)

  CH4(g)         -117.03   -119.89   -2.86  CH4
  CO2(g)            1.65      0.13   -1.52  CO2	 Pressure  89.4 atm, phi 0.505
  H2(g)           -36.14    -39.27   -3.12  H2
  H2O(g)           -1.48     -0.01    1.47  H2O	 Pressure   0.3 atm, phi 0.114
  O2(g)           -10.95    -13.89   -2.94  O2

**For a gas, SI = log10(fugacity). Fugacity = pressure * phi / 1 atm.
  For ideal gases, phi = 1.

Reaction step 19.

Using solution 1.	pH 7 charge
Using gas phase 6.	
Using reaction 1.	

Reaction 1.	

	  1.038e+00 moles of the following reaction have been added:

	                 Relative
	Reactant            moles

	CO2                  1.00000

	                 Relative
	Element             moles
	C                    1.00000
	O                    2.00000

-----------------------------------Gas phase-----------------------------------

Total pressure: 108.44      atmospheres          (Peng-Robinson calculation)
    Gas volume:   1.00e+00 liters
  Molar volume:   5.45e-02 liters/mole
   P * Vm / RT:  0.24148  (Compressibility Factor Z) 

                                                        Moles in gas
                                            ----------------------------------
Component         log P           P    phi     Initial       Final       Delta

CO2(g)             2.03   1.081e+02  0.436   1.728e+01   1.829e+01   1.014e+00
H2O(g)            -0.43   3.693e-01  0.090   5.563e-02   6.251e-02   6.876e-03

-----------------------------Solution composition------------------------------

	Elements           Molality       Moles

	C                 1.440e+00   1.439e+00

----------------------------Description of solution----------------------------

                                       pH  =   3.085      Charge balance
                                       pe  =  14.999      Adjusted to redox equilibrium
      Specific Conductance (µS/cm,  25°C)  = 294
                          Density (g/cm³)  =   1.01464
                               Volume (L)  =   1.04687
                        Viscosity (mPa s)  =   0.98734
                        Activity of water  =   0.976
                 Ionic strength (mol/kgw)  =   8.486e-04
                       Mass of water (kg)  =   9.989e-01
                 Total alkalinity (eq/kg)  =   1.213e-09
                       Total CO2 (mol/kg)  =   1.440e+00
                         Temperature (°C)  =  25.00
                           Pressure (atm)  = 108.44
                  Electrical balance (eq)  =  -1.212e-09
 Percent error, 100*(Cat-|An|)/(Cat+|An|)  =  -0.00
                               Iterations  =  59
                                  Total H  = 1.108874e+02
                                  Total O  = 5.832126e+01

----------------------------Distribution of species----------------------------

                                               Log       Log       Log    mole V
   Species          Molality    Activity  Molality  Activity     Gamma   cm³/mol

   H+              8.486e-04   8.225e-04    -3.071    -3.085    -0.014      0.00
   OH-             1.365e-11   1.321e-11   -10.865   -10.879    -0.014     -3.72
   H2O             5.551e+01   9.760e-01     1.744    -0.011     0.000     17.98
C(-4)         0.000e+00
   CH4             0.000e+00   0.000e+00  -120.187  -120.187     0.000     35.60
C(4)          1.440e+00
   CO2             1.378e+00   1.378e+00     0.139     0.139     0.000     34.68
   (CO2)2          3.097e-02   3.098e-02    -1.509    -1.509     0.000     68.52
   HCO3-           8.486e-04   8.216e-04    -3.071    -3.085    -0.014     24.87
   CO3-2           6.046e-11   5.312e-11   -10.219   -10.275    -0.056     -3.73
H(0)          9.024e-40
   H2              4.512e-40   4.513e-40   -39.346   -39.346     0.000     15.06
O(0)          3.646e-14
   O2              1.823e-14   1.823e-14   -13.739   -13.739     0.000     30.25

------------------------------Saturation indices-------------------------------

  Phase               SI** log IAP   log K(298 K, 108 atm)

  CH4(g)         -117.32   -120.19   -2.87  CH4
  CO2(g)            1.67      0.14   -1.53  CO2	 Pressure 108.1 atm, phi 0.436
  H2(g)           -36.22    -39.35   -3.13  H2
  H2O(g)           -1.48     -0.01    1.47  H2O	 Pressure   0.4 atm, phi 0.090
  O2(g)           -10.79    -13.74   -2.95  O2

**For a gas, SI = log10(fugacity). Fugacity = pressure * phi / 1 atm.
  For ideal gases, phi = 1.

Reaction step 20.

Using solution 1.	pH 7 charge
Using gas phase 6.	
Using reaction 1.	

Reaction 1.	

[...]
                                       pe  =   1.979      Adjusted to redox equilibrium
      Specific Conductance (µS/cm, 100°C)  = 586
                          Density (g/cm³)  =   0.99248
                               Volume (L)  =   1.06949
                        Viscosity (mPa s)  =   0.30348
                        Activity of water  =   0.975
                 Ionic strength (mol/kgw)  =   9.223e-04
                       Mass of water (kg)  =   9.917e-01
                 Total alkalinity (eq/kg)  =   5.738e-06
                       Total CO2 (mol/kg)  =   1.597e+00
                         Temperature (°C)  = 100.00
                           Pressure (atm)  = 531.08
                  Electrical balance (eq)  =  -5.690e-06
 Percent error, 100*(Cat-|An|)/(Cat+|An|)  =  -0.31
                               Iterations  = 101 (202 overall)
                                  Total H  = 1.100945e+02
                                  Total O  = 5.821539e+01

----------------------------Distribution of species----------------------------

                                               Log       Log       Log    mole V
   Species          Molality    Activity  Molality  Activity     Gamma   cm³/mol

   H+              9.194e-04   8.860e-04    -3.036    -3.053    -0.016      0.00
   OH-             1.041e-09   1.001e-09    -8.983    -9.000    -0.017     -7.86
   H2O             5.551e+01   9.754e-01     1.744    -0.011     0.000     18.35
C(-4)         1.199e-25
   CH4             1.199e-25   1.199e-25   -24.921   -24.921     0.000     40.49
C(4)          1.597e+00
   CO2             1.294e+00   1.294e+00     0.112     0.112     0.000     37.64
   (CO2)2          1.512e-01   1.513e-01    -0.820    -0.820     0.000     74.43
   HCO3-           9.252e-04   8.904e-04    -3.034    -3.050    -0.017     26.39
   CO3-2           1.347e-10   1.155e-10    -9.871    -9.937    -0.067     -2.31
H(0)          4.961e-14
   H2              2.480e-14   2.481e-14   -13.605   -13.605     0.000     17.65
O(0)          0.000e+00
   O2              0.000e+00   0.000e+00   -46.427   -46.427     0.000     32.40

------------------------------Saturation indices-------------------------------

  Phase               SI** log IAP   log K(373 K, 531 atm)

  CH4(g)          -21.61    -24.92   -3.31  CH4
  CO2(g)            2.37      0.11   -2.26  CO2	 Pressure 518.8 atm, phi 0.456
  H2(g)           -10.39    -13.61   -3.22  H2
  H2O(g)            0.12     -0.01   -0.13  H2O	 Pressure  12.3 atm, phi 0.108
  O2(g)           -43.07    -46.43   -3.36  O2

**For a gas, SI = log10(fugacity). Fugacity = pressure * phi / 1 atm.
  For ideal gases, phi = 1.

Reaction step 22.

WARNING: Numerical method failed, switching to numerical derivatives.
WARNING: Maximum iterations exceeded, 100

WARNING: Numerical method failed with this set of convergence parameters.

WARNING: Trying smaller step size, pe step size 10, 5 ... 

Using solution 1.	pH 7 charge
Using gas phase 6.	
Using reaction 1.	

Reaction 1.	

	  1.000e+00 moles of the following reaction have been added:

	                 Relative
	Reactant            moles

	CO2                  1.00000

	                 Relative
	Element             moles
	C                    1.00000
	O                    2.00000

-----------------------------------Gas phase-----------------------------------

Total pressure: 605.55      atmospheres          (Peng-Robinson calculation)
    Gas volume:   1.00e+00 liters
  Molar volume:   4.80e-02 liters/mole
   P * Vm / RT:  0.94927  (Compressibility Factor Z) 

                                                        Moles in gas
                                            ----------------------------------
Component         log P           P    phi     Initial       Final       Delta

CO2(g)             2.77   5.916e+02  0.452   1.942e+01   2.035e+01   9.362e-01
H2O(g)             1.15   1.397e+01  0.099   4.590e-01   4.806e-01   2.167e-02

-----------------------------Solution composition------------------------------

	Elements           Molality       Moles

	C                 1.662e+00   1.648e+00

----------------------------Description of solution----------------------------

                                       pH  =   3.032      Charge balance
                                       pe  =   1.779      Adjusted to redox equilibrium
      Specific Conductance (µS/cm, 100°C)  = 612
                          Density (g/cm³)  =   0.99606
                               Volume (L)  =   1.06808
                        Viscosity (mPa s)  =   0.30581
                        Activity of water  =   0.974
                 Ionic strength (mol/kgw)  =   9.677e-04
                       Mass of water (kg)  =   9.913e-01
                 Total alkalinity (eq/kg)  =   5.740e-06
                       Total CO2 (mol/kg)  =   1.662e+00
                         Temperature (°C)  = 100.00
                           Pressure (atm)  = 605.55
                  Electrical balance (eq)  =  -5.690e-06
 Percent error, 100*(Cat-|An|)/(Cat+|An|)  =  -0.30
                               Iterations  =  53 (154 overall)
                                  Total H  = 1.100512e+02
                                  Total O  = 5.832141e+01

----------------------------Distribution of species----------------------------

                                               Log       Log       Log    mole V
   Species          Molality    Activity  Molality  Activity     Gamma   cm³/mol

   H+              9.648e-04   9.291e-04    -3.016    -3.032    -0.016      0.00
   OH-             1.061e-09   1.020e-09    -8.974    -8.992    -0.017     -8.08
   H2O             5.551e+01   9.745e-01     1.744    -0.011     0.000     18.29
C(-4)         6.588e-24
   CH4             6.588e-24   6.589e-24   -23.181   -23.181     0.000     40.42
C(4)          1.662e+00
   CO2             1.337e+00   1.338e+00     0.126     0.126     0.000     37.46
   (CO2)2          1.619e-01   1.620e-01    -0.791    -0.791     0.000     74.09
   HCO3-           9.706e-04   9.334e-04    -3.013    -3.030    -0.017     26.64
   CO3-2           1.436e-10   1.228e-10    -9.843    -9.911    -0.068     -1.64
H(0)          1.316e-13
   H2              6.579e-14   6.580e-14   -13.182   -13.182     0.000     17.58
O(0)          0.000e+00
   O2              0.000e+00   0.000e+00   -47.306   -47.306     0.000     32.23

------------------------------Saturation indices-------------------------------

  Phase               SI** log IAP   log K(373 K, 606 atm)

  CH4(g)          -19.83    -23.18   -3.35  CH4
  CO2(g)            2.43      0.13   -2.30  CO2	 Pressure 591.6 atm, phi 0.452
  H2(g)            -9.94    -13.18   -3.24  H2
  H2O(g)            0.14     -0.01   -0.15  H2O	 Pressure  14.0 atm, phi 0.099
  O2(g)           -43.92    -47.31   -3.39  O2

**For a gas, SI = log10(fugacity). Fugacity = pressure * phi / 1 atm.
  For ideal gases, phi = 1.

Reaction step 23.

WARNING: Numerical method failed, switching to numerical derivatives.
WARNING: Maximum iterations exceeded, 100

WARNING: Numerical method failed with this set of convergence parameters.

WARNING: Trying smaller step size, pe step size 10, 5 ... 

Using solution 1.	pH 7 charge
Using gas phase 6.	
Using reaction 1.	

Reaction 1.	

	  1.000e+00 moles of the following reaction have been added:

	                 Relative
	Reactant            moles

	CO2                  1.00000

	                 Relative
	Element             moles
	C                    1.00000
	O                    2.00000

-----------------------------------Gas phase-----------------------------------

Total pressure: 693.62      atmospheres          (Peng-Robinson calculation)
    Gas volume:   1.00e+00 liters
  Molar volume:   4.59e-02 liters/mole
   P * Vm / RT:  1.03988  (Compressibility Factor Z) 

                                                        Moles in gas
                                            ----------------------------------
Component         log P           P    phi     Initial       Final       Delta

CO2(g)             2.83   6.777e+02  0.452   2.035e+01   2.128e+01   9.321e-01
H2O(g)             1.20   1.590e+01  0.091   4.806e-01   4.993e-01   1.870e-02

-----------------------------Solution composition------------------------------

	Elements           Molality       Moles

	C                 1.731e+00   1.716e+00

----------------------------Description of solution----------------------------

                                       pH  =   3.009      Charge balance
                                       pe  =   1.812      Adjusted to redox equilibrium
      Specific Conductance (µS/cm, 100°C)  = 641
                          Density (g/cm³)  =   1.00018
                               Volume (L)  =   1.06633
                        Viscosity (mPa s)  =   0.30853
                        Activity of water  =   0.973
                 Ionic strength (mol/kgw)  =   1.020e-03
                       Mass of water (kg)  =   9.910e-01
                 Total alkalinity (eq/kg)  =   5.742e-06
                       Total CO2 (mol/kg)  =   1.731e+00
                         Temperature (°C)  = 100.00
                           Pressure (atm)  = 693.62
                  Electrical balance (eq)  =  -5.690e-06
 Percent error, 100*(Cat-|An|)/(Cat+|An|)  =  -0.28
                               Iterations  =  41 (142 overall)
                                  Total H  = 1.100138e+02
                                  Total O  = 5.843856e+01

----------------------------Distribution of species----------------------------

                                               Log       Log       Log    mole V
   Species          Molality    Activity  Molality  Activity     Gamma   cm³/mol

   H+              1.017e-03   9.790e-04    -2.993    -3.009    -0.017      0.00
   OH-             1.091e-09   1.047e-09    -8.962    -8.980    -0.018     -8.32
   H2O             5.551e+01   9.735e-01     1.744    -0.012     0.000     18.23
C(-4)         5.055e-24
   CH4             5.055e-24   5.057e-24   -23.296   -23.296     0.000     40.34
C(4)          1.731e+00
   CO2             1.383e+00   1.383e+00     0.141     0.141     0.000     37.27
   (CO2)2          1.736e-01   1.736e-01    -0.760    -0.760     0.000     73.69
   HCO3-           1.023e-03   9.831e-04    -2.990    -3.007    -0.017     26.91
   CO3-2           1.545e-10   1.318e-10    -9.811    -9.880    -0.069     -0.89
H(0)          1.196e-13
   H2              5.980e-14   5.982e-14   -13.223   -13.223     0.000     17.49
O(0)          0.000e+00
   O2              0.000e+00   0.000e+00   -47.260   -47.260     0.000     32.04

------------------------------Saturation indices-------------------------------

  Phase               SI** log IAP   log K(373 K, 694 atm)

  CH4(g)          -19.90    -23.30   -3.40  CH4
  CO2(g)            2.49      0.14   -2.35  CO2	 Pressure 677.7 atm, phi 0.452
  H2(g)            -9.97    -13.22   -3.26  H2
  H2O(g)            0.16     -0.01   -0.17  H2O	 Pressure  15.9 atm, phi 0.091
  O2(g)           -43.83    -47.26   -3.43  O2

**For a gas, SI = log10(fugacity). Fugacity = pressure * phi / 1 atm.
  For ideal gases, phi = 1.

Reaction step 24.

WARNING: Numerical method failed, switching to numerical derivatives.
WARNING: Maximum iterations exceeded, 100

WARNING: Numerical method failed with this set of convergence parameters.

WARNING: Trying smaller step size, pe step size 10, 5 ... 

Using solution 1.	pH 7 charge
Using gas phase 6.	
Using reaction 1.	

Reaction 1.	

	  1.000e+00 moles of the following reaction have been added:

	                 Relative
	Reactant            moles

	CO2                  1.00000

	                 Relative
	Element             moles
	C                    1.00000
	O                    2.00000

-----------------------------------Gas phase-----------------------------------

Total pressure: 797.99      atmospheres          (Peng-Robinson calculation)
    Gas volume:   1.00e+00 liters
  Molar volume:   4.40e-02 liters/mole
   P * Vm / RT:  1.14671  (Compressibility Factor Z) 

                                                        Moles in gas
                                            ----------------------------------
Component         log P           P    phi     Initial       Final       Delta

CO2(g)             2.89   7.799e+02  0.459   2.128e+01   2.221e+01   9.278e-01
H2O(g)             1.26   1.806e+01  0.085   4.993e-01   5.144e-01   1.505e-02

-----------------------------Solution composition------------------------------

	Elements           Molality       Moles

	C                 1.805e+00   1.788e+00

----------------------------Description of solution----------------------------

                                       pH  =   2.984      Charge balance
                                       pe  =   1.830      Adjusted to redox equilibrium
      Specific Conductance (µS/cm, 100°C)  = 675
                          Density (g/cm³)  =   1.00491
                               Volume (L)  =   1.06420
                        Viscosity (mPa s)  =   0.31171
                        Activity of water  =   0.972
                 Ionic strength (mol/kgw)  =   1.081e-03
                       Mass of water (kg)  =   9.907e-01
                 Total alkalinity (eq/kg)  =   5.744e-06
                       Total CO2 (mol/kg)  =   1.805e+00
                         Temperature (°C)  = 100.00
                           Pressure (atm)  = 797.99
                  Electrical balance (eq)  =  -5.690e-06
 Percent error, 100*(Cat-|An|)/(Cat+|An|)  =  -0.27
                               Iterations  =  84 (185 overall)
                                  Total H  = 1.099837e+02
                                  Total O  = 5.856794e+01

----------------------------Distribution of species----------------------------

                                               Log       Log       Log    mole V
   Species          Molality    Activity  Molality  Activity     Gamma   cm³/mol

   H+              1.078e-03   1.037e-03    -2.967    -2.984    -0.017      0.00
   OH-             1.133e-09   1.087e-09    -8.946    -8.964    -0.018     -8.59
   H2O             5.551e+01   9.725e-01     1.744    -0.012     0.000     18.15
C(-4)         5.230e-24
   CH4             5.230e-24   5.232e-24   -23.281   -23.281     0.000     40.25
C(4)          1.805e+00
   CO2             1.431e+00   1.431e+00     0.156     0.156     0.000     37.04
   (CO2)2          1.864e-01   1.864e-01    -0.730    -0.730     0.000     73.25
   HCO3-           1.084e-03   1.041e-03    -2.965    -2.983    -0.018     27.23
   CO3-2           1.681e-10   1.428e-10    -9.774    -9.845    -0.071     -0.05
H(0)          1.168e-13
   H2              5.838e-14   5.840e-14   -13.234   -13.234     0.000     17.39
O(0)          0.000e+00
   O2              0.000e+00   0.000e+00   -47.283   -47.283     0.000     31.83

------------------------------Saturation indices-------------------------------

  Phase               SI** log IAP   log K(373 K, 798 atm)

  CH4(g)          -19.82    -23.28   -3.46  CH4
  CO2(g)            2.55      0.16   -2.40  CO2	 Pressure 779.9 atm, phi 0.459
  H2(g)            -9.95    -13.23   -3.28  H2
  H2O(g)            0.19     -0.01   -0.20  H2O	 Pressure  18.1 atm, phi 0.085
  O2(g)           -43.81    -47.28   -3.47  O2

**For a gas, SI = log10(fugacity). Fugacity = pressure * phi / 1 atm.
  For ideal gases, phi = 1.

Reaction step 25.

WARNING: Numerical method failed, switching to numerical derivatives.
WARNING: Maximum iterations exceeded, 100

WARNING: Numerical method failed with this set of convergence parameters.

WARNING: Trying smaller step size, pe step size 10, 5 ... 

Using solution 1.	pH 7 charge
Using gas phase 6.	
Using reaction 1.	

Reaction 1.	

	  1.000e+00 moles of the following reaction have been added:

	                 Relative
	Reactant            moles

	CO2                  1.00000

	                 Relative
	Element             moles
	C                    1.00000
	O                    2.00000

-----------------------------------Gas phase-----------------------------------

Total pressure: 921.93      atmospheres          (Peng-Robinson calculation)
    Gas volume:   1.00e+00 liters
  Molar volume:   4.23e-02 liters/mole
   P * Vm / RT:  1.27252  (Compressibility Factor Z) 

                                                        Moles in gas
                                            ----------------------------------
Component         log P           P    phi     Initial       Final       Delta

CO2(g)             2.95   9.015e+02  0.474   2.221e+01   2.314e+01   9.233e-01
H2O(g)             1.31   2.046e+01  0.081   5.144e-01   5.251e-01   1.067e-02

-----------------------------Solution composition------------------------------

	Elements           Molality       Moles

	C                 1.883e+00   1.865e+00

----------------------------Description of solution----------------------------

                                       pH  =   2.957      Charge balance
                                       pe  =  11.521      Adjusted to redox equilibrium
      Specific Conductance (µS/cm, 100°C)  = 715
                          Density (g/cm³)  =   1.01034
                               Volume (L)  =   1.06163
                        Viscosity (mPa s)  =   0.31544
                        Activity of water  =   0.971
                 Ionic strength (mol/kgw)  =   1.153e-03
                       Mass of water (kg)  =   9.905e-01
                 Total alkalinity (eq/kg)  =   5.745e-06
                       Total CO2 (mol/kg)  =   1.883e+00
                         Temperature (°C)  = 100.00
                           Pressure (atm)  = 921.93
                  Electrical balance (eq)  =  -5.690e-06
 Percent error, 100*(Cat-|An|)/(Cat+|An|)  =  -0.25
                               Iterations  =  84 (185 overall)
                                  Total H  = 1.099623e+02
                                  Total O  = 5.871071e+01

----------------------------Distribution of species----------------------------

                                               Log       Log       Log    mole V
   Species          Molality    Activity  Molality  Activity     Gamma   cm³/mol

   H+              1.150e-03   1.104e-03    -2.939    -2.957    -0.017      0.00
   OH-             1.192e-09   1.143e-09    -8.924    -8.942    -0.018     -8.89
   H2O             5.551e+01   9.714e-01     1.744    -0.013     0.000     18.06
C(-4)         0.000e+00
   CH4             0.000e+00   0.000e+00  -100.643  -100.643     0.000     40.15
C(4)          1.883e+00
   CO2             1.481e+00   1.481e+00     0.171     0.171     0.000     36.80
   (CO2)2          2.003e-01   2.003e-01    -0.698    -0.698     0.000     72.76
   HCO3-           1.155e-03   1.108e-03    -2.937    -2.955    -0.018     27.57
   CO3-2           1.850e-10   1.566e-10    -9.733    -9.805    -0.072      0.88
H(0)          5.141e-33
   H2              2.571e-33   2.571e-33   -32.590   -32.590     0.000     17.29
O(0)          4.788e-09
   O2              2.394e-09   2.395e-09    -8.621    -8.621     0.000     31.59

------------------------------Saturation indices-------------------------------

  Phase               SI** log IAP   log K(373 K, 922 atm)

  CH4(g)          -97.11   -100.64   -3.53  CH4
  CO2(g)            2.63      0.17   -2.46  CO2	 Pressure 901.5 atm, phi 0.474
  H2(g)           -29.28    -32.59   -3.31  H2
  H2O(g)            0.22     -0.01   -0.23  H2O	 Pressure  20.5 atm, phi 0.081
  O2(g)            -5.09     -8.62   -3.53  O2

**For a gas, SI = log10(fugacity). Fugacity = pressure * phi / 1 atm.
  For ideal gases, phi = 1.

------------------
End of simulation.
------------------

------------------------------------
Reading input data for simulation 7.
------------------------------------

