WARNING: Database file from DATABASE keyword is used; command line argument ignored.
   Input file: co2_VP
  Output file: co2_VP.out
Database file: ../database/phreeqc.dat

------------------
Reading data base.
------------------

	SOLUTION_MASTER_SPECIES
	SOLUTION_SPECIES
	PHASES
	GAS_BINARY_PARAMETERS
	EXCHANGE_MASTER_SPECIES
	EXCHANGE_SPECIES
	SURFACE_MASTER_SPECIES
	SURFACE_SPECIES
	MEAN_GAMMAS
	RATES
	END
------------------------------------
Reading input data for simulation 1.
------------------------------------

	database ../database/phreeqc.dat # contains Dw's since version 2.17
	SELECTED_OUTPUT 101
	    file                 co2_VP_101.sel
	USER_PUNCH 101
	    headings Mu SC
	    start
	10 PUNCH STR_F$(MU, 20, 12)
	20 PUNCH STR_F$(SC, 20, 10)
	    end
	SOLUTION 1
	temp 25 # 40.09
	REACTION 1
	CO2 1
	 0.1 10*0.4 12*2
	INCREMENTAL_REACTIONS true
	GAS_PHASE 1
	fixed_volume
	 CO2(g) 20
	USER_GRAPH
	-headings Vm
	-plot_csv_file co2_VP.dat
	-connect_simulations false
	-axis_scale x_axis 0 0.5 #0.2
	-axis_scale y_axis 0 500 #100
	-axis_titles "molar volume / (L/mol)" "Gas pressure / atm"
	60 graph_x 1 / gas("CO2(g)")
	70 graph_y  gas_p #* pr_phi("CO2(g)")
	END
-------------------------------------------
Beginning of initial solution calculations.
-------------------------------------------

Initial solution 1.	

-----------------------------Solution composition------------------------------

	Elements           Molality       Moles

	Pure water     

----------------------------Description of solution----------------------------

                                       pH  =   7.000    
                                       pe  =   4.000    
      Specific Conductance (µS/cm,  25°C)  = 0
                          Density (g/cm³)  =   0.99704
                               Volume (L)  =   1.00297
                        Viscosity (mPa s)  =   0.89002
                        Activity of water  =   1.000
                 Ionic strength (mol/kgw)  =   1.007e-07
                       Mass of water (kg)  =   1.000e+00
                 Total alkalinity (eq/kg)  =   1.217e-09
                         Temperature (°C)  =  25.00
                  Electrical balance (eq)  =  -1.217e-09
 Percent error, 100*(Cat-|An|)/(Cat+|An|)  =  -0.60
                               Iterations  =   0
                                  Total H  = 1.110124e+02
                                  Total O  = 5.550622e+01

----------------------------Distribution of species----------------------------

                                               Log       Log       Log    mole V
   Species          Molality    Activity  Molality  Activity     Gamma   cm³/mol

   OH-             1.013e-07   1.012e-07    -6.995    -6.995    -0.000     -4.14
   H+              1.001e-07   1.000e-07    -7.000    -7.000    -0.000      0.00
   H2O             5.551e+01   1.000e+00     1.744     0.000     0.000     18.07
H(0)          1.416e-25
   H2              7.079e-26   7.079e-26   -25.150   -25.150     0.000     14.99
O(0)          0.000e+00
   O2              0.000e+00   0.000e+00   -42.063   -42.063     0.000     30.40

------------------------------Saturation indices-------------------------------

  Phase               SI** log IAP   log K(298 K,   1 atm)

  H2(g)           -22.05    -25.15   -3.10  H2
  H2O(g)           -1.50      0.00    1.50  H2O
  O2(g)           -39.17    -42.06   -2.89  O2

**For a gas, SI = log10(fugacity). Fugacity = pressure * phi / 1 atm.
  For ideal gases, phi = 1.

-----------------------------------------
Beginning of batch-reaction calculations.
-----------------------------------------

Reaction step 1.

Using solution 1.	
Using gas phase 1.	
Using reaction 1.	

Reaction 1.	

	  1.000e-01 moles of the following reaction have been added:

	                 Relative
	Reactant            moles

	CO2                  1.00000

	                 Relative
	Element             moles
	C                    1.00000
	O                    2.00000

-----------------------------------Gas phase-----------------------------------

Total pressure: 13.55      atmospheres          (Peng-Robinson calculation)
    Gas volume:   1.00e+00 liters
  Molar volume:   1.66e+00 liters/mole
   P * Vm / RT:  0.92187  (Compressibility Factor Z) 

                                                        Moles in gas
                                            ----------------------------------
Component         log P           P    phi     Initial       Final       Delta

CO2(g)             1.13   1.355e+01  0.926   9.267e-01   6.009e-01  -3.258e-01

-----------------------------Solution composition------------------------------

	Elements           Molality       Moles

	C                 4.258e-01   4.258e-01

----------------------------Description of solution----------------------------

                                       pH  =   3.363      Charge balance
                                       pe  =  14.529      Adjusted to redox equilibrium
      Specific Conductance (µS/cm,  25°C)  = 166
                          Density (g/cm³)  =   1.00152
                               Volume (L)  =   1.01719
                        Viscosity (mPa s)  =   0.91914
                        Activity of water  =   0.993
                 Ionic strength (mol/kgw)  =   4.439e-04
                       Mass of water (kg)  =   1.000e+00
                 Total alkalinity (eq/kg)  =   1.216e-09
                       Total CO2 (mol/kg)  =   4.258e-01
                         Temperature (°C)  =  25.00
                           Pressure (atm)  = 13.55
                  Electrical balance (eq)  =  -1.216e-09
 Percent error, 100*(Cat-|An|)/(Cat+|An|)  =  -0.00
                               Iterations  =  34
                                  Total H  = 1.110124e+02
                                  Total O  = 5.635783e+01

----------------------------Distribution of species----------------------------

                                               Log       Log       Log    mole V
   Species          Molality    Activity  Molality  Activity     Gamma   cm³/mol

   H+              4.439e-04   4.337e-04    -3.353    -3.363    -0.010      0.00
   OH-             2.401e-11   2.343e-11   -10.620   -10.630    -0.010     -4.07
   H2O             5.551e+01   9.928e-01     1.744    -0.003     0.000     18.06
C(-4)         0.000e+00
   CH4             0.000e+00   0.000e+00  -119.126  -119.126     0.000     35.47
C(4)          4.258e-01
   CO2             4.196e-01   4.197e-01    -0.377    -0.377     0.000     34.78
   (CO2)2          2.864e-03   2.864e-03    -2.543    -2.543     0.000     68.72
   HCO3-           4.439e-04   4.335e-04    -3.353    -3.363    -0.010     24.58
   CO3-2           5.234e-11   4.758e-11   -10.281   -10.323    -0.041     -4.61
H(0)          2.309e-39
   H2              1.154e-39   1.155e-39   -38.938   -38.938     0.000     15.00
O(0)          6.338e-15
   O2              3.169e-15   3.169e-15   -14.499   -14.499     0.000     30.38

------------------------------Saturation indices-------------------------------

  Phase               SI** log IAP   log K(298 K,  14 atm)

  CH4(g)         -116.32   -119.13   -2.81  CH4
  CO2(g)            1.10     -0.38   -1.48  CO2	 Pressure  13.6 atm, phi 0.926
  H2(g)           -35.83    -38.94   -3.10  H2
  H2O(g)           -1.50     -0.00    1.50  H2O
  O2(g)           -11.60    -14.50   -2.90  O2

**For a gas, SI = log10(fugacity). Fugacity = pressure * phi / 1 atm.
  For ideal gases, phi = 1.

Reaction step 2.

Using solution 1.	
Using gas phase 1.	
Using reaction 1.	

Reaction 1.	

	  4.000e-01 moles of the following reaction have been added:

	                 Relative
	Reactant            moles

	CO2                  1.00000

	                 Relative
	Element             moles
	C                    1.00000
	O                    2.00000

-----------------------------------Gas phase-----------------------------------

Total pressure: 18.70      atmospheres          (Peng-Robinson calculation)
    Gas volume:   1.00e+00 liters
  Molar volume:   1.17e+00 liters/mole
   P * Vm / RT:  0.89029  (Compressibility Factor Z) 

                                                        Moles in gas
                                            ----------------------------------
Component         log P           P    phi     Initial       Final       Delta

CO2(g)             1.27   1.870e+01  0.899   6.009e-01   8.584e-01   2.574e-01

-----------------------------Solution composition------------------------------

	Elements           Molality       Moles

	C                 5.684e-01   5.684e-01

----------------------------Description of solution----------------------------

                                       pH  =   3.300      Charge balance
                                       pe  =  14.558      Adjusted to redox equilibrium
      Specific Conductance (µS/cm,  25°C)  = 190
                          Density (g/cm³)  =   1.00304
                               Volume (L)  =   1.02191
                        Viscosity (mPa s)  =   0.92884
                        Activity of water  =   0.990
                 Ionic strength (mol/kgw)  =   5.136e-04
                       Mass of water (kg)  =   1.000e+00
                 Total alkalinity (eq/kg)  =   1.216e-09
                       Total CO2 (mol/kg)  =   5.684e-01
                         Temperature (°C)  =  25.00
                           Pressure (atm)  = 18.70
                  Electrical balance (eq)  =  -1.216e-09
 Percent error, 100*(Cat-|An|)/(Cat+|An|)  =  -0.00
                               Iterations  =  28
                                  Total H  = 1.110124e+02
                                  Total O  = 5.664293e+01

----------------------------Distribution of species----------------------------

                                               Log       Log       Log    mole V
   Species          Molality    Activity  Molality  Activity     Gamma   cm³/mol

   H+              5.136e-04   5.009e-04    -3.289    -3.300    -0.011      0.00
   OH-             2.087e-11   2.033e-11   -10.681   -10.692    -0.011     -4.05
   H2O             5.551e+01   9.904e-01     1.744    -0.004     0.000     18.06
C(-4)         0.000e+00
   CH4             0.000e+00   0.000e+00  -118.731  -118.731     0.000     35.48
C(4)          5.684e-01
   CO2             5.577e-01   5.578e-01    -0.254    -0.254     0.000     34.77
   (CO2)2          5.060e-03   5.061e-03    -2.296    -2.296     0.000     68.71
   HCO3-           5.136e-04   5.006e-04    -3.289    -3.300    -0.011     24.60
   CO3-2           5.302e-11   4.787e-11   -10.276   -10.320    -0.044     -4.55
H(0)          2.692e-39
   H2              1.346e-39   1.346e-39   -38.871   -38.871     0.000     15.00
O(0)          4.615e-15
   O2              2.307e-15   2.308e-15   -14.637   -14.637     0.000     30.37

------------------------------Saturation indices-------------------------------

  Phase               SI** log IAP   log K(298 K,  19 atm)

  CH4(g)         -115.92   -118.73   -2.81  CH4
  CO2(g)            1.23     -0.25   -1.48  CO2	 Pressure  18.7 atm, phi 0.899
  H2(g)           -35.77    -38.87   -3.10  H2
  H2O(g)           -1.50     -0.00    1.50  H2O
  O2(g)           -11.73    -14.64   -2.90  O2

**For a gas, SI = log10(fugacity). Fugacity = pressure * phi / 1 atm.
  For ideal gases, phi = 1.

Reaction step 3.

Using solution 1.	
Using gas phase 1.	
Using reaction 1.	

Reaction 1.	

	  4.000e-01 moles of the following reaction have been added:

	                 Relative
	Reactant            moles

	CO2                  1.00000

	                 Relative
	Element             moles
	C                    1.00000
	O                    2.00000

-----------------------------------Gas phase-----------------------------------

Total pressure: 23.71      atmospheres          (Peng-Robinson calculation)
    Gas volume:   1.00e+00 liters
  Molar volume:   8.86e-01 liters/mole
   P * Vm / RT:  0.85822  (Compressibility Factor Z) 

                                                        Moles in gas
                                            ----------------------------------
Component         log P           P    phi     Initial       Final       Delta

CO2(g)             1.37   2.371e+01  0.873   8.584e-01   1.129e+00   2.709e-01

-----------------------------Solution composition------------------------------

	Elements           Molality       Moles

	C                 6.974e-01   6.974e-01

----------------------------Description of solution----------------------------

                                       pH  =   3.256      Charge balance
                                       pe  =  14.610      Adjusted to redox equilibrium
      Specific Conductance (µS/cm,  25°C)  = 208
                          Density (g/cm³)  =   1.00441
                               Volume (L)  =   1.02617
                        Viscosity (mPa s)  =   0.93761
                        Activity of water  =   0.988
                 Ionic strength (mol/kgw)  =   5.695e-04
                       Mass of water (kg)  =   1.000e+00
                 Total alkalinity (eq/kg)  =   1.216e-09
                       Total CO2 (mol/kg)  =   6.974e-01
                         Temperature (°C)  =  25.00
                           Pressure (atm)  = 23.71
                  Electrical balance (eq)  =  -1.216e-09
 Percent error, 100*(Cat-|An|)/(Cat+|An|)  =  -0.00
                               Iterations  =  28
                                  Total H  = 1.110124e+02
                                  Total O  = 5.690109e+01

----------------------------Distribution of species----------------------------

                                               Log       Log       Log    mole V
   Species          Molality    Activity  Molality  Activity     Gamma   cm³/mol

   H+              5.695e-04   5.548e-04    -3.244    -3.256    -0.011      0.00
   OH-             1.891e-11   1.840e-11   -10.723   -10.735    -0.012     -4.03
   H2O             5.551e+01   9.883e-01     1.744    -0.005     0.000     18.05
C(-4)         0.000e+00
   CH4             0.000e+00   0.000e+00  -118.711  -118.711     0.000     35.49
C(4)          6.974e-01
   CO2             6.817e-01   6.818e-01    -0.166    -0.166     0.000     34.77
   (CO2)2          7.563e-03   7.563e-03    -2.121    -2.121     0.000     68.70
   HCO3-           5.695e-04   5.545e-04    -3.244    -3.256    -0.012     24.61
   CO3-2           5.361e-11   4.815e-11   -10.271   -10.317    -0.047     -4.50
H(0)          2.584e-39
   H2              1.292e-39   1.292e-39   -38.889   -38.889     0.000     15.01
O(0)          4.962e-15
   O2              2.481e-15   2.481e-15   -14.605   -14.605     0.000     30.37

------------------------------Saturation indices-------------------------------

  Phase               SI** log IAP   log K(298 K,  24 atm)

  CH4(g)         -115.89   -118.71   -2.82  CH4
  CO2(g)            1.32     -0.17   -1.48  CO2	 Pressure  23.7 atm, phi 0.873
  H2(g)           -35.78    -38.89   -3.11  H2
  H2O(g)           -1.50     -0.01    1.50  H2O
  O2(g)           -11.70    -14.61   -2.90  O2

**For a gas, SI = log10(fugacity). Fugacity = pressure * phi / 1 atm.
  For ideal gases, phi = 1.

Reaction step 4.

Using solution 1.	
Using gas phase 1.	
Using reaction 1.	

Reaction 1.	

	  4.000e-01 moles of the following reaction have been added:

	                 Relative
	Reactant            moles

	CO2                  1.00000

	                 Relative
	Element             moles
	C                    1.00000
	O                    2.00000

-----------------------------------Gas phase-----------------------------------

Total pressure: 28.56      atmospheres          (Peng-Robinson calculation)
    Gas volume:   1.00e+00 liters
  Molar volume:   7.07e-01 liters/mole
   P * Vm / RT:  0.82577  (Compressibility Factor Z) 

                                                        Moles in gas
                                            ----------------------------------
Component         log P           P    phi     Initial       Final       Delta

CO2(g)             1.46   2.856e+01  0.848   1.129e+00   1.414e+00   2.844e-01

-----------------------------Solution composition------------------------------

	Elements           Molality       Moles

	C                 8.130e-01   8.130e-01

----------------------------Description of solution----------------------------

                                       pH  =   3.222      Charge balance
                                       pe  =  14.548      Adjusted to redox equilibrium
      Specific Conductance (µS/cm,  25°C)  = 223
                          Density (g/cm³)  =   1.00565
                               Volume (L)  =   1.02996
                        Viscosity (mPa s)  =   0.94545
                        Activity of water  =   0.986
                 Ionic strength (mol/kgw)  =   6.156e-04
                       Mass of water (kg)  =   1.000e+00
                 Total alkalinity (eq/kg)  =   1.215e-09
                       Total CO2 (mol/kg)  =   8.130e-01
                         Temperature (°C)  =  25.00
                           Pressure (atm)  = 28.56
                  Electrical balance (eq)  =  -1.215e-09
 Percent error, 100*(Cat-|An|)/(Cat+|An|)  =  -0.00
                               Iterations  =  28
                                  Total H  = 1.110124e+02
                                  Total O  = 5.713227e+01

----------------------------Distribution of species----------------------------

                                               Log       Log       Log    mole V
   Species          Molality    Activity  Molality  Activity     Gamma   cm³/mol

   H+              6.156e-04   5.991e-04    -3.211    -3.222    -0.012      0.00
   OH-             1.757e-11   1.708e-11   -10.755   -10.767    -0.012     -4.01
   H2O             5.551e+01   9.863e-01     1.744    -0.006     0.000     18.05
C(-4)         0.000e+00
   CH4             0.000e+00   0.000e+00  -117.880  -117.880     0.000     35.49
C(4)          8.130e-01
   CO2             7.920e-01   7.921e-01    -0.101    -0.101     0.000     34.76
   (CO2)2          1.021e-02   1.021e-02    -1.991    -1.991     0.000     68.69
   HCO3-           6.156e-04   5.987e-04    -3.211    -3.223    -0.012     24.63
   CO3-2           5.413e-11   4.842e-11   -10.267   -10.315    -0.048     -4.45
H(0)          4.008e-39
   H2              2.004e-39   2.004e-39   -38.698   -38.698     0.000     15.01
O(0)          2.045e-15
   O2              1.022e-15   1.023e-15   -14.990   -14.990     0.000     30.36

------------------------------Saturation indices-------------------------------

  Phase               SI** log IAP   log K(298 K,  29 atm)

  CH4(g)         -115.06   -117.88   -2.82  CH4
  CO2(g)            1.38     -0.10   -1.49  CO2	 Pressure  28.6 atm, phi 0.848
  H2(g)           -35.59    -38.70   -3.11  H2
  H2O(g)           -1.50     -0.01    1.49  H2O
  O2(g)           -12.08    -14.99   -2.91  O2

**For a gas, SI = log10(fugacity). Fugacity = pressure * phi / 1 atm.
  For ideal gases, phi = 1.

Reaction step 5.

Using solution 1.	
Using gas phase 1.	
Using reaction 1.	

Reaction 1.	

	  4.000e-01 moles of the following reaction have been added:

	                 Relative
	Reactant            moles

	CO2                  1.00000

	                 Relative
	Element             moles
	C                    1.00000
	O                    2.00000

-----------------------------------Gas phase-----------------------------------

Total pressure: 33.21      atmospheres          (Peng-Robinson calculation)
    Gas volume:   1.00e+00 liters
  Molar volume:   5.84e-01 liters/mole
   P * Vm / RT:  0.79308  (Compressibility Factor Z) 

                                                        Moles in gas
                                            ----------------------------------
Component         log P           P    phi     Initial       Final       Delta

CO2(g)             1.52   3.321e+01  0.824   1.414e+00   1.711e+00   2.977e-01

-----------------------------Solution composition------------------------------

	Elements           Molality       Moles

	C                 9.153e-01   9.153e-01

----------------------------Description of solution----------------------------

                                       pH  =   3.197      Charge balance
                                       pe  =   2.272      Adjusted to redox equilibrium
      Specific Conductance (µS/cm,  25°C)  = 235
                          Density (g/cm³)  =   1.00676
                               Volume (L)  =   1.03330
                        Viscosity (mPa s)  =   0.95238
                        Activity of water  =   0.985
                 Ionic strength (mol/kgw)  =   6.539e-04
                       Mass of water (kg)  =   1.000e+00
                 Total alkalinity (eq/kg)  =   1.216e-09
                       Total CO2 (mol/kg)  =   9.153e-01
                         Temperature (°C)  =  25.00
                           Pressure (atm)  = 33.21
                  Electrical balance (eq)  =  -1.216e-09
 Percent error, 100*(Cat-|An|)/(Cat+|An|)  =  -0.00
                               Iterations  =  37
                                  Total H  = 1.110124e+02
                                  Total O  = 5.733685e+01

----------------------------Distribution of species----------------------------

                                               Log       Log       Log    mole V
   Species          Molality    Activity  Molality  Activity     Gamma   cm³/mol

   H+              6.539e-04   6.359e-04    -3.185    -3.197    -0.012      0.00
   OH-             1.661e-11   1.613e-11   -10.780   -10.792    -0.013     -3.99
   H2O             5.551e+01   9.846e-01     1.744    -0.007     0.000     18.04
C(-4)         3.843e-20
   CH4             3.843e-20   3.844e-20   -19.415   -19.415     0.000     35.50
C(4)          9.153e-01
   CO2             8.889e-01   8.890e-01    -0.051    -0.051     0.000     34.76
   (CO2)2          1.286e-02   1.286e-02    -1.891    -1.891     0.000     68.68
   HCO3-           6.539e-04   6.354e-04    -3.185    -3.197    -0.012     24.65
   CO3-2           5.461e-11   4.869e-11   -10.263   -10.313    -0.050     -4.41
H(0)          1.606e-14
   H2              8.029e-15   8.030e-15   -14.095   -14.095     0.000     15.01
O(0)          0.000e+00
   O2              0.000e+00   0.000e+00   -64.199   -64.199     0.000     30.35

------------------------------Saturation indices-------------------------------

  Phase               SI** log IAP   log K(298 K,  33 atm)

  CH4(g)          -16.59    -19.42   -2.82  CH4
  CO2(g)            1.44     -0.05   -1.49  CO2	 Pressure  33.2 atm, phi 0.824
  H2(g)           -10.99    -14.10   -3.11  H2
  H2O(g)           -1.50     -0.01    1.49  H2O
  O2(g)           -61.29    -64.20   -2.91  O2

**For a gas, SI = log10(fugacity). Fugacity = pressure * phi / 1 atm.
  For ideal gases, phi = 1.

Reaction step 6.

Using solution 1.	
Using gas phase 1.	
Using reaction 1.	

Reaction 1.	

	  4.000e-01 moles of the following reaction have been added:

	                 Relative
	Reactant            moles

	CO2                  1.00000

	                 Relative
	Element             moles
	C                    1.00000
	O                    2.00000

-----------------------------------Gas phase-----------------------------------

Total pressure: 37.61      atmospheres          (Peng-Robinson calculation)
    Gas volume:   1.00e+00 liters
  Molar volume:   4.95e-01 liters/mole
   P * Vm / RT:  0.76031  (Compressibility Factor Z) 

                                                        Moles in gas
                                            ----------------------------------
Component         log P           P    phi     Initial       Final       Delta

CO2(g)             1.58   3.761e+01  0.801   1.711e+00   2.022e+00   3.106e-01

-----------------------------Solution composition------------------------------

	Elements           Molality       Moles

	C                 1.005e+00   1.005e+00

----------------------------Description of solution----------------------------

                                       pH  =   3.176      Charge balance
                                       pe  =  14.601      Adjusted to redox equilibrium
      Specific Conductance (µS/cm,  25°C)  = 245
                          Density (g/cm³)  =   1.00774
                               Volume (L)  =   1.03620
                        Viscosity (mPa s)  =   0.95843
                        Activity of water  =   0.983
                 Ionic strength (mol/kgw)  =   6.858e-04
                       Mass of water (kg)  =   1.000e+00
                 Total alkalinity (eq/kg)  =   1.216e-09
                       Total CO2 (mol/kg)  =   1.005e+00
                         Temperature (°C)  =  25.00
                           Pressure (atm)  = 37.61
                  Electrical balance (eq)  =  -1.216e-09
 Percent error, 100*(Cat-|An|)/(Cat+|An|)  =  -0.00
                               Iterations  =  29
                                  Total H  = 1.110124e+02
                                  Total O  = 5.751566e+01

----------------------------Distribution of species----------------------------

                                               Log       Log       Log    mole V
   Species          Molality    Activity  Molality  Activity     Gamma   cm³/mol

   H+              6.858e-04   6.665e-04    -3.164    -3.176    -0.012      0.00
   OH-             1.590e-11   1.543e-11   -10.799   -10.812    -0.013     -3.98
   H2O             5.551e+01   9.832e-01     1.744    -0.007     0.000     18.04
C(-4)         0.000e+00
   CH4             0.000e+00   0.000e+00  -117.844  -117.844     0.000     35.51
C(4)          1.005e+00
   CO2             9.732e-01   9.733e-01    -0.012    -0.012     0.000     34.75
   (CO2)2          1.542e-02   1.542e-02    -1.812    -1.812     0.000     68.67
   HCO3-           6.858e-04   6.660e-04    -3.164    -3.177    -0.013     24.66
   CO3-2           5.503e-11   4.894e-11   -10.259   -10.310    -0.051     -4.36
H(0)          3.871e-39
   H2              1.935e-39   1.936e-39   -38.713   -38.713     0.000     15.02
O(0)          2.159e-15
   O2              1.079e-15   1.080e-15   -14.967   -14.967     0.000     30.35

------------------------------Saturation indices-------------------------------

  Phase               SI** log IAP   log K(298 K,  38 atm)

  CH4(g)         -115.02   -117.84   -2.82  CH4
  CO2(g)            1.48     -0.01   -1.49  CO2	 Pressure  37.6 atm, phi 0.801
  H2(g)           -35.60    -38.71   -3.11  H2
  H2O(g)           -1.50     -0.01    1.49  H2O
  O2(g)           -12.05    -14.97   -2.91  O2

**For a gas, SI = log10(fugacity). Fugacity = pressure * phi / 1 atm.
  For ideal gases, phi = 1.

Reaction step 7.

Using solution 1.	
Using gas phase 1.	
Using reaction 1.	

Reaction 1.	

	  4.000e-01 moles of the following reaction have been added:

	                 Relative
	Reactant            moles

	CO2                  1.00000

	                 Relative
	Element             moles
	C                    1.00000
	O                    2.00000

-----------------------------------Gas phase-----------------------------------

Total pressure: 41.74      atmospheres          (Peng-Robinson calculation)
    Gas volume:   1.00e+00 liters
  Molar volume:   4.26e-01 liters/mole
   P * Vm / RT:  0.72761  (Compressibility Factor Z) 

                                                        Moles in gas
                                            ----------------------------------
Component         log P           P    phi     Initial       Final       Delta

CO2(g)             1.62   4.174e+01  0.780   2.022e+00   2.345e+00   3.229e-01

-----------------------------Solution composition------------------------------

	Elements           Molality       Moles

	C                 1.082e+00   1.082e+00

----------------------------Description of solution----------------------------

                                       pH  =   3.160      Charge balance
                                       pe  =   2.213      Adjusted to redox equilibrium
      Specific Conductance (µS/cm,  25°C)  = 253
                          Density (g/cm³)  =   1.00860
                               Volume (L)  =   1.03868
                        Viscosity (mPa s)  =   0.96365
                        Activity of water  =   0.982
                 Ionic strength (mol/kgw)  =   7.124e-04
                       Mass of water (kg)  =   1.000e+00
                 Total alkalinity (eq/kg)  =   1.216e-09
                       Total CO2 (mol/kg)  =   1.082e+00
                         Temperature (°C)  =  25.00
                           Pressure (atm)  = 41.74
                  Electrical balance (eq)  =  -1.216e-09
 Percent error, 100*(Cat-|An|)/(Cat+|An|)  =  -0.00
                               Iterations  =  35
                                  Total H  = 1.110124e+02
                                  Total O  = 5.766991e+01

----------------------------Distribution of species----------------------------

                                               Log       Log       Log    mole V
   Species          Molality    Activity  Molality  Activity     Gamma   cm³/mol

   H+              7.124e-04   6.921e-04    -3.147    -3.160    -0.013      0.00
   OH-             1.536e-11   1.490e-11   -10.814   -10.827    -0.013     -3.96
   H2O             5.551e+01   9.819e-01     1.744    -0.008     0.000     18.04
C(-4)         2.599e-19
   CH4             2.599e-19   2.599e-19   -18.585   -18.585     0.000     35.51
C(4)          1.082e+00
   CO2             1.046e+00   1.046e+00     0.019     0.019     0.000     34.75
   (CO2)2          1.780e-02   1.780e-02    -1.750    -1.750     0.000     68.66
   HCO3-           7.124e-04   6.915e-04    -3.147    -3.160    -0.013     24.67
   CO3-2           5.542e-11   4.917e-11   -10.256   -10.308    -0.052     -4.32
H(0)          2.478e-14
   H2              1.239e-14   1.239e-14   -13.907   -13.907     0.000     15.02
O(0)          0.000e+00
   O2              0.000e+00   0.000e+00   -64.582   -64.582     0.000     30.34

------------------------------Saturation indices-------------------------------

  Phase               SI** log IAP   log K(298 K,  42 atm)

  CH4(g)          -15.76    -18.59   -2.83  CH4
  CO2(g)            1.51      0.02   -1.49  CO2	 Pressure  41.7 atm, phi 0.780
  H2(g)           -10.80    -13.91   -3.11  H2
  H2O(g)           -1.50     -0.01    1.49  H2O
  O2(g)           -61.67    -64.58   -2.91  O2

**For a gas, SI = log10(fugacity). Fugacity = pressure * phi / 1 atm.
  For ideal gases, phi = 1.

Reaction step 8.

Using solution 1.	
Using gas phase 1.	
Using reaction 1.	

Reaction 1.	

	  4.000e-01 moles of the following reaction have been added:

	                 Relative
	Reactant            moles

	CO2                  1.00000

	                 Relative
	Element             moles
	C                    1.00000
	O                    2.00000

-----------------------------------Gas phase-----------------------------------

Total pressure: 45.57      atmospheres          (Peng-Robinson calculation)
    Gas volume:   1.00e+00 liters
  Molar volume:   3.73e-01 liters/mole
   P * Vm / RT:  0.69517  (Compressibility Factor Z) 

                                                        Moles in gas
                                            ----------------------------------
Component         log P           P    phi     Initial       Final       Delta

CO2(g)             1.66   4.557e+01  0.761   2.345e+00   2.679e+00   3.344e-01

-----------------------------Solution composition------------------------------

	Elements           Molality       Moles

	C                 1.147e+00   1.147e+00

----------------------------Description of solution----------------------------

                                       pH  =   3.147      Charge balance
                                       pe  =   2.145      Adjusted to redox equilibrium
      Specific Conductance (µS/cm,  25°C)  = 259
                          Density (g/cm³)  =   1.00933
                               Volume (L)  =   1.04079
                        Viscosity (mPa s)  =   0.96808
                        Activity of water  =   0.981
                 Ionic strength (mol/kgw)  =   7.345e-04
                       Mass of water (kg)  =   1.000e+00
                 Total alkalinity (eq/kg)  =   1.216e-09
                       Total CO2 (mol/kg)  =   1.147e+00
                         Temperature (°C)  =  25.00
                           Pressure (atm)  = 45.57
                  Electrical balance (eq)  =  -1.216e-09
 Percent error, 100*(Cat-|An|)/(Cat+|An|)  =  -0.00
                               Iterations  =  21
                                  Total H  = 1.110124e+02
                                  Total O  = 5.780118e+01

----------------------------Distribution of species----------------------------

                                               Log       Log       Log    mole V
   Species          Molality    Activity  Molality  Activity     Gamma   cm³/mol

   H+              7.345e-04   7.132e-04    -3.134    -3.147    -0.013      0.00
   OH-             1.494e-11   1.449e-11   -10.826   -10.839    -0.013     -3.95
   H2O             5.551e+01   9.808e-01     1.744    -0.008     0.000     18.03
C(-4)         1.221e-18
   CH4             1.221e-18   1.221e-18   -17.913   -17.913     0.000     35.52
C(4)          1.147e+00
   CO2             1.107e+00   1.107e+00     0.044     0.044     0.000     34.75
   (CO2)2          1.995e-02   1.995e-02    -1.700    -1.700     0.000     68.65
   HCO3-           7.345e-04   7.126e-04    -3.134    -3.147    -0.013     24.69
   CO3-2           5.576e-11   4.940e-11   -10.254   -10.306    -0.053     -4.29
H(0)          3.591e-14
   H2              1.796e-14   1.796e-14   -13.746   -13.746     0.000     15.02
O(0)          0.000e+00
   O2              0.000e+00   0.000e+00   -64.907   -64.907     0.000     30.34

------------------------------Saturation indices-------------------------------

  Phase               SI** log IAP   log K(298 K,  46 atm)

  CH4(g)          -15.08    -17.91   -2.83  CH4
  CO2(g)            1.54      0.04   -1.50  CO2	 Pressure  45.6 atm, phi 0.761
  H2(g)           -10.63    -13.75   -3.11  H2
  H2O(g)           -1.50     -0.01    1.49  H2O
  O2(g)           -61.99    -64.91   -2.92  O2

**For a gas, SI = log10(fugacity). Fugacity = pressure * phi / 1 atm.
  For ideal gases, phi = 1.

Reaction step 9.

Using solution 1.	
Using gas phase 1.	
Using reaction 1.	

Reaction 1.	

	  4.000e-01 moles of the following reaction have been added:

	                 Relative
	Reactant            moles

	CO2                  1.00000

	                 Relative
	Element             moles
	C                    1.00000
	O                    2.00000

-----------------------------------Gas phase-----------------------------------

Total pressure: 49.06      atmospheres          (Peng-Robinson calculation)
    Gas volume:   1.00e+00 liters
  Molar volume:   3.31e-01 liters/mole
   P * Vm / RT:  0.66313  (Compressibility Factor Z) 

                                                        Moles in gas
                                            ----------------------------------
Component         log P           P    phi     Initial       Final       Delta

CO2(g)             1.69   4.906e+01  0.743   2.679e+00   3.024e+00   3.449e-01

-----------------------------Solution composition------------------------------

	Elements           Molality       Moles

	C                 1.203e+00   1.203e+00

----------------------------Description of solution----------------------------

                                       pH  =   3.136      Charge balance
                                       pe  =   2.187      Adjusted to redox equilibrium
      Specific Conductance (µS/cm,  25°C)  = 265
                          Density (g/cm³)  =   1.00997
                               Volume (L)  =   1.04254
                        Viscosity (mPa s)  =   0.97179
                        Activity of water  =   0.980
                 Ionic strength (mol/kgw)  =   7.528e-04
                       Mass of water (kg)  =   1.000e+00
                 Total alkalinity (eq/kg)  =   1.216e-09
                       Total CO2 (mol/kg)  =   1.203e+00
                         Temperature (°C)  =  25.00
                           Pressure (atm)  = 49.06
                  Electrical balance (eq)  =  -1.216e-09
 Percent error, 100*(Cat-|An|)/(Cat+|An|)  =  -0.00
                               Iterations  =  22
                                  Total H  = 1.110124e+02
                                  Total O  = 5.791131e+01

----------------------------Distribution of species----------------------------

                                               Log       Log       Log    mole V
   Species          Molality    Activity  Molality  Activity     Gamma   cm³/mol

   H+              7.528e-04   7.307e-04    -3.123    -3.136    -0.013      0.00
   OH-             1.462e-11   1.417e-11   -10.835   -10.849    -0.014     -3.93
   H2O             5.551e+01   9.799e-01     1.744    -0.009     0.000     18.03
C(-4)         7.134e-19
   CH4             7.134e-19   7.135e-19   -18.147   -18.147     0.000     35.52
C(4)          1.203e+00
   CO2             1.158e+00   1.158e+00     0.064     0.064     0.000     34.74
   (CO2)2          2.184e-02   2.185e-02    -1.661    -1.661     0.000     68.65
   HCO3-           7.528e-04   7.300e-04    -3.123    -3.137    -0.013     24.70
   CO3-2           5.607e-11   4.960e-11   -10.251   -10.305    -0.053     -4.26
H(0)          3.100e-14
   H2              1.550e-14   1.550e-14   -13.810   -13.810     0.000     15.02
O(0)          0.000e+00
   O2              0.000e+00   0.000e+00   -64.782   -64.782     0.000     30.33

------------------------------Saturation indices-------------------------------

  Phase               SI** log IAP   log K(298 K,  49 atm)

  CH4(g)          -15.31    -18.15   -2.83  CH4
  CO2(g)            1.56      0.06   -1.50  CO2	 Pressure  49.1 atm, phi 0.743
  H2(g)           -10.70    -13.81   -3.11  H2
  H2O(g)           -1.50     -0.01    1.49  H2O
  O2(g)           -61.86    -64.78   -2.92  O2

**For a gas, SI = log10(fugacity). Fugacity = pressure * phi / 1 atm.
  For ideal gases, phi = 1.

Reaction step 10.

Using solution 1.	
Using gas phase 1.	
Using reaction 1.	

Reaction 1.	

	  4.000e-01 moles of the following reaction have been added:

	                 Relative
	Reactant            moles

	CO2                  1.00000

	                 Relative
	Element             moles
	C                    1.00000
	O                    2.00000

-----------------------------------Gas phase-----------------------------------

Total pressure: 52.21      atmospheres          (Peng-Robinson calculation)
    Gas volume:   1.00e+00 liters
  Molar volume:   2.96e-01 liters/mole
   P * Vm / RT:  0.63166  (Compressibility Factor Z) 

                                                        Moles in gas
                                            ----------------------------------
Component         log P           P    phi     Initial       Final       Delta

CO2(g)             1.72   5.221e+01  0.727   3.024e+00   3.379e+00   3.545e-01

-----------------------------Solution composition------------------------------

	Elements           Molality       Moles

	C                 1.248e+00   1.248e+00

----------------------------Description of solution----------------------------

                                       pH  =   3.128      Charge balance
                                       pe  =   2.269      Adjusted to redox equilibrium
      Specific Conductance (µS/cm,  25°C)  = 269
                          Density (g/cm³)  =   1.01050
                               Volume (L)  =   1.04397
                        Viscosity (mPa s)  =   0.97486
                        Activity of water  =   0.979
                 Ionic strength (mol/kgw)  =   7.677e-04
                       Mass of water (kg)  =   1.000e+00
                 Total alkalinity (eq/kg)  =   1.215e-09
                       Total CO2 (mol/kg)  =   1.248e+00
                         Temperature (°C)  =  25.00
                           Pressure (atm)  = 52.21
                  Electrical balance (eq)  =  -1.215e-09
 Percent error, 100*(Cat-|An|)/(Cat+|An|)  =  -0.00
                               Iterations  =  22
                                  Total H  = 1.110124e+02
                                  Total O  = 5.800235e+01

----------------------------Distribution of species----------------------------

                                               Log       Log       Log    mole V
   Species          Molality    Activity  Molality  Activity     Gamma   cm³/mol

   H+              7.677e-04   7.450e-04    -3.115    -3.128    -0.013      0.00
   OH-             1.437e-11   1.393e-11   -10.842   -10.856    -0.014     -3.92
   H2O             5.551e+01   9.792e-01     1.744    -0.009     0.000     18.03
C(-4)         1.894e-19
   CH4             1.894e-19   1.894e-19   -18.723   -18.723     0.000     35.53
C(4)          1.248e+00
   CO2             1.200e+00   1.201e+00     0.079     0.079     0.000     34.74
   (CO2)2          2.347e-02   2.347e-02    -1.630    -1.629     0.000     68.64
   HCO3-           7.677e-04   7.443e-04    -3.115    -3.128    -0.013     24.71
   CO3-2           5.634e-11   4.978e-11   -10.249   -10.303    -0.054     -4.23
H(0)          2.203e-14
   H2              1.102e-14   1.102e-14   -13.958   -13.958     0.000     15.03
O(0)          0.000e+00
   O2              0.000e+00   0.000e+00   -64.487   -64.487     0.000     30.33

------------------------------Saturation indices-------------------------------

  Phase               SI** log IAP   log K(298 K,  52 atm)

  CH4(g)          -15.89    -18.72   -2.83  CH4
  CO2(g)            1.58      0.08   -1.50  CO2	 Pressure  52.2 atm, phi 0.727
  H2(g)           -10.84    -13.96   -3.11  H2
  H2O(g)           -1.50     -0.01    1.49  H2O
  O2(g)           -61.57    -64.49   -2.92  O2

**For a gas, SI = log10(fugacity). Fugacity = pressure * phi / 1 atm.
  For ideal gases, phi = 1.

Reaction step 11.

Using solution 1.	
Using gas phase 1.	
Using reaction 1.	

Reaction 1.	

	  4.000e-01 moles of the following reaction have been added:

	                 Relative
	Reactant            moles

	CO2                  1.00000

	                 Relative
	Element             moles
	C                    1.00000
	O                    2.00000

-----------------------------------Gas phase-----------------------------------

Total pressure: 55.01      atmospheres          (Peng-Robinson calculation)
    Gas volume:   1.00e+00 liters
  Molar volume:   2.67e-01 liters/mole
   P * Vm / RT:  0.60088  (Compressibility Factor Z) 

                                                        Moles in gas
                                            ----------------------------------
Component         log P           P    phi     Initial       Final       Delta

CO2(g)             1.74   5.501e+01  0.712   3.379e+00   3.742e+00   3.630e-01

-----------------------------Solution composition------------------------------

	Elements           Molality       Moles

	C                 1.285e+00   1.285e+00

----------------------------Description of solution----------------------------

                                       pH  =   3.121      Charge balance
                                       pe  =   2.207      Adjusted to redox equilibrium
      Specific Conductance (µS/cm,  25°C)  = 272
                          Density (g/cm³)  =   1.01094
                               Volume (L)  =   1.04513
                        Viscosity (mPa s)  =   0.97735
                        Activity of water  =   0.979
                 Ionic strength (mol/kgw)  =   7.797e-04
                       Mass of water (kg)  =   1.000e+00
                 Total alkalinity (eq/kg)  =   1.215e-09
                       Total CO2 (mol/kg)  =   1.285e+00
                         Temperature (°C)  =  25.00
                           Pressure (atm)  = 55.01
                  Electrical balance (eq)  =  -1.215e-09
 Percent error, 100*(Cat-|An|)/(Cat+|An|)  =  -0.00
                               Iterations  =  26
                                  Total H  = 1.110124e+02
                                  Total O  = 5.807640e+01

----------------------------Distribution of species----------------------------

                                               Log       Log       Log    mole V
   Species          Molality    Activity  Molality  Activity     Gamma   cm³/mol

   H+              7.797e-04   7.565e-04    -3.108    -3.121    -0.013      0.00
   OH-             1.418e-11   1.374e-11   -10.848   -10.862    -0.014     -3.91
   H2O             5.551e+01   9.786e-01     1.744    -0.009     0.000     18.03
C(-4)         6.973e-19
   CH4             6.973e-19   6.975e-19   -18.157   -18.156     0.000     35.53
C(4)          1.285e+00
   CO2             1.235e+00   1.235e+00     0.092     0.092     0.000     34.74
   (CO2)2          2.483e-02   2.483e-02    -1.605    -1.605     0.000     68.63
   HCO3-           7.797e-04   7.558e-04    -3.108    -3.122    -0.014     24.71
   CO3-2           5.657e-11   4.994e-11   -10.247   -10.302    -0.054     -4.20
H(0)          3.027e-14
   H2              1.514e-14   1.514e-14   -13.820   -13.820     0.000     15.03
O(0)          0.000e+00
   O2              0.000e+00   0.000e+00   -64.765   -64.765     0.000     30.32

------------------------------Saturation indices-------------------------------

  Phase               SI** log IAP   log K(298 K,  55 atm)

  CH4(g)          -15.32    -18.16   -2.84  CH4
  CO2(g)            1.59      0.09   -1.50  CO2	 Pressure  55.0 atm, phi 0.712
  H2(g)           -10.71    -13.82   -3.11  H2
  H2O(g)           -1.49     -0.01    1.49  H2O
  O2(g)           -61.84    -64.76   -2.92  O2

**For a gas, SI = log10(fugacity). Fugacity = pressure * phi / 1 atm.
  For ideal gases, phi = 1.

Reaction step 12.

Using solution 1.	
Using gas phase 1.	
Using reaction 1.	

Reaction 1.	

	  2.000e+00 moles of the following reaction have been added:

	                 Relative
	Reactant            moles

	CO2                  1.00000

	                 Relative
	Element             moles
	C                    1.00000
	O                    2.00000

-----------------------------------Gas phase-----------------------------------

Total pressure: 63.71      atmospheres          (Peng-Robinson calculation)
    Gas volume:   1.00e+00 liters
  Molar volume:   1.77e-01 liters/mole
   P * Vm / RT:  0.46102  (Compressibility Factor Z) 

                                                        Moles in gas
                                            ----------------------------------
Component         log P           P    phi     Initial       Final       Delta

CO2(g)             1.80   6.371e+01  0.666   3.742e+00   5.649e+00   1.907e+00

-----------------------------Solution composition------------------------------

	Elements           Molality       Moles

	C                 1.378e+00   1.378e+00

----------------------------Description of solution----------------------------

                                       pH  =   3.105      Charge balance
                                       pe  =   2.217      Adjusted to redox equilibrium
      Specific Conductance (µS/cm,  25°C)  = 281
                          Density (g/cm³)  =   1.01212
                               Volume (L)  =   1.04795
                        Viscosity (mPa s)  =   0.98359
                        Activity of water  =   0.977
                 Ionic strength (mol/kgw)  =   8.102e-04
                       Mass of water (kg)  =   1.000e+00
                 Total alkalinity (eq/kg)  =   1.215e-09
                       Total CO2 (mol/kg)  =   1.378e+00
                         Temperature (°C)  =  25.00
                           Pressure (atm)  = 63.71
                  Electrical balance (eq)  =  -1.215e-09
 Percent error, 100*(Cat-|An|)/(Cat+|An|)  =  -0.00
                               Iterations  =  37
                                  Total H  = 1.110124e+02
                                  Total O  = 5.826261e+01

----------------------------Distribution of species----------------------------

                                               Log       Log       Log    mole V
   Species          Molality    Activity  Molality  Activity     Gamma   cm³/mol

   H+              8.102e-04   7.857e-04    -3.091    -3.105    -0.013      0.00
   OH-             1.375e-11   1.331e-11   -10.862   -10.876    -0.014     -3.88
   H2O             5.551e+01   9.770e-01     1.744    -0.010     0.000     18.02
C(-4)         8.255e-19
   CH4             8.255e-19   8.257e-19   -18.083   -18.083     0.000     35.54
C(4)          1.378e+00
   CO2             1.321e+00   1.321e+00     0.121     0.121     0.000     34.73
   (CO2)2          2.842e-02   2.842e-02    -1.546    -1.546     0.000     68.62
   HCO3-           8.102e-04   7.849e-04    -3.091    -3.105    -0.014     24.74
   CO3-2           5.727e-11   5.045e-11   -10.242   -10.297    -0.055     -4.12
H(0)          3.096e-14
   H2              1.548e-14   1.548e-14   -13.810   -13.810     0.000     15.03
O(0)          0.000e+00
   O2              0.000e+00   0.000e+00   -64.790   -64.790     0.000     30.31

------------------------------Saturation indices-------------------------------

  Phase               SI** log IAP   log K(298 K,  64 atm)

  CH4(g)          -15.24    -18.08   -2.84  CH4
  CO2(g)            1.63      0.12   -1.51  CO2	 Pressure  63.7 atm, phi 0.666
  H2(g)           -10.69    -13.81   -3.12  H2
  H2O(g)           -1.49     -0.01    1.48  H2O
  O2(g)           -61.86    -64.79   -2.93  O2

**For a gas, SI = log10(fugacity). Fugacity = pressure * phi / 1 atm.
  For ideal gases, phi = 1.

Reaction step 13.

Using solution 1.	
Using gas phase 1.	
Using reaction 1.	

Reaction 1.	

	  2.000e+00 moles of the following reaction have been added:

	                 Relative
	Reactant            moles

	CO2                  1.00000

	                 Relative
	Element             moles
	C                    1.00000
	O                    2.00000

-----------------------------------Gas phase-----------------------------------

Total pressure: 65.36      atmospheres          (Peng-Robinson calculation)
    Gas volume:   1.00e+00 liters
  Molar volume:   1.31e-01 liters/mole
   P * Vm / RT:  0.34982  (Compressibility Factor Z) 

                                                        Moles in gas
                                            ----------------------------------
Component         log P           P    phi     Initial       Final       Delta

CO2(g)             1.82   6.536e+01  0.656   5.649e+00   7.636e+00   1.988e+00

-----------------------------Solution composition------------------------------

	Elements           Molality       Moles

	C                 1.391e+00   1.391e+00

----------------------------Description of solution----------------------------

                                       pH  =   3.103      Charge balance
                                       pe  =   2.239      Adjusted to redox equilibrium
      Specific Conductance (µS/cm,  25°C)  = 282
                          Density (g/cm³)  =   1.01230
                               Volume (L)  =   1.04831
                        Viscosity (mPa s)  =   0.98442
                        Activity of water  =   0.977
                 Ionic strength (mol/kgw)  =   8.144e-04
                       Mass of water (kg)  =   1.000e+00
                 Total alkalinity (eq/kg)  =   1.215e-09
                       Total CO2 (mol/kg)  =   1.391e+00
                         Temperature (°C)  =  25.00
                           Pressure (atm)  = 65.36
                  Electrical balance (eq)  =  -1.215e-09
 Percent error, 100*(Cat-|An|)/(Cat+|An|)  =  -0.00
                               Iterations  =  44
                                  Total H  = 1.110124e+02
                                  Total O  = 5.828754e+01

----------------------------Distribution of species----------------------------

                                               Log       Log       Log    mole V
   Species          Molality    Activity  Molality  Activity     Gamma   cm³/mol

   H+              8.144e-04   7.897e-04    -3.089    -3.103    -0.013      0.00
   OH-             1.370e-11   1.326e-11   -10.863   -10.877    -0.014     -3.87
   H2O             5.551e+01   9.768e-01     1.744    -0.010     0.000     18.02
C(-4)         5.797e-19
   CH4             5.797e-19   5.798e-19   -18.237   -18.237     0.000     35.54
C(4)          1.391e+00
   CO2             1.332e+00   1.332e+00     0.125     0.125     0.000     34.72
   (CO2)2          2.891e-02   2.892e-02    -1.539    -1.539     0.000     68.61
   HCO3-           8.144e-04   7.889e-04    -3.089    -3.103    -0.014     24.75
   CO3-2           5.740e-11   5.055e-11   -10.241   -10.296    -0.055     -4.11
H(0)          2.827e-14
   H2              1.413e-14   1.414e-14   -13.850   -13.850     0.000     15.03
O(0)          0.000e+00
   O2              0.000e+00   0.000e+00   -64.712   -64.711     0.000     30.31

------------------------------Saturation indices-------------------------------

  Phase               SI** log IAP   log K(298 K,  65 atm)

  CH4(g)          -15.39    -18.24   -2.84  CH4
  CO2(g)            1.63      0.12   -1.51  CO2	 Pressure  65.4 atm, phi 0.656
  H2(g)           -10.73    -13.85   -3.12  H2
  H2O(g)           -1.49     -0.01    1.48  H2O
  O2(g)           -61.78    -64.71   -2.93  O2

**For a gas, SI = log10(fugacity). Fugacity = pressure * phi / 1 atm.
  For ideal gases, phi = 1.

Reaction step 14.

Using solution 1.	
Using gas phase 1.	
Using reaction 1.	

Reaction 1.	

	  2.000e+00 moles of the following reaction have been added:

	                 Relative
	Reactant            moles

	CO2                  1.00000

	                 Relative
	Element             moles
	C                    1.00000
	O                    2.00000

-----------------------------------Gas phase-----------------------------------

Total pressure: 65.36      atmospheres          (Peng-Robinson calculation)
    Gas volume:   1.00e+00 liters
  Molar volume:   1.04e-01 liters/mole
   P * Vm / RT:  0.27717  (Compressibility Factor Z) 

                                                        Moles in gas
                                            ----------------------------------
Component         log P           P    phi     Initial       Final       Delta

CO2(g)             1.82   6.536e+01  0.656   7.636e+00   9.638e+00   2.002e+00

-----------------------------Solution composition------------------------------

	Elements           Molality       Moles

	C                 1.389e+00   1.389e+00

----------------------------Description of solution----------------------------

                                       pH  =   3.103      Charge balance
                                       pe  =   2.362      Adjusted to redox equilibrium
      Specific Conductance (µS/cm,  25°C)  = 282
                          Density (g/cm³)  =   1.01229
                               Volume (L)  =   1.04825
                        Viscosity (mPa s)  =   0.98431
                        Activity of water  =   0.977
                 Ionic strength (mol/kgw)  =   8.139e-04
                       Mass of water (kg)  =   1.000e+00
                 Total alkalinity (eq/kg)  =   1.215e-09
                       Total CO2 (mol/kg)  =   1.389e+00
                         Temperature (°C)  =  25.00
                           Pressure (atm)  = 65.36
                  Electrical balance (eq)  =  -1.215e-09
 Percent error, 100*(Cat-|An|)/(Cat+|An|)  =  -0.00
                               Iterations  =  47
                                  Total H  = 1.110124e+02
                                  Total O  = 5.828417e+01

----------------------------Distribution of species----------------------------

                                               Log       Log       Log    mole V
   Species          Molality    Activity  Molality  Activity     Gamma   cm³/mol

   H+              8.139e-04   7.893e-04    -3.089    -3.103    -0.013      0.00
   OH-             1.371e-11   1.327e-11   -10.863   -10.877    -0.014     -3.87
   H2O             5.551e+01   9.769e-01     1.744    -0.010     0.000     18.02
C(-4)         5.937e-20
   CH4             5.937e-20   5.938e-20   -19.226   -19.226     0.000     35.54
C(4)          1.389e+00
   CO2             1.330e+00   1.331e+00     0.124     0.124     0.000     34.72
   (CO2)2          2.885e-02   2.885e-02    -1.540    -1.540     0.000     68.61
   HCO3-           8.139e-04   7.885e-04    -3.089    -3.103    -0.014     24.75
   CO3-2           5.740e-11   5.055e-11   -10.241   -10.296    -0.055     -4.11
H(0)          1.600e-14
   H2              7.998e-15   8.000e-15   -14.097   -14.097     0.000     15.03
O(0)          0.000e+00
   O2              0.000e+00   0.000e+00   -64.217   -64.217     0.000     30.31

------------------------------Saturation indices-------------------------------

  Phase               SI** log IAP   log K(298 K,  65 atm)

  CH4(g)          -16.38    -19.23   -2.84  CH4
  CO2(g)            1.63      0.12   -1.51  CO2	 Pressure  65.4 atm, phi 0.656
  H2(g)           -10.98    -14.10   -3.12  H2
  H2O(g)           -1.49     -0.01    1.48  H2O
  O2(g)           -61.29    -64.22   -2.93  O2

**For a gas, SI = log10(fugacity). Fugacity = pressure * phi / 1 atm.
  For ideal gases, phi = 1.

Reaction step 15.

Using solution 1.	
Using gas phase 1.	
Using reaction 1.	

Reaction 1.	

	  2.000e+00 moles of the following reaction have been added:

	                 Relative
	Reactant            moles

	CO2                  1.00000

	                 Relative
	Element             moles
	C                    1.00000
	O                    2.00000

-----------------------------------Gas phase-----------------------------------

Total pressure: 65.36      atmospheres          (Peng-Robinson calculation)
    Gas volume:   1.00e+00 liters
  Molar volume:   8.59e-02 liters/mole
   P * Vm / RT:  0.22945  (Compressibility Factor Z) 

                                                        Moles in gas
                                            ----------------------------------
Component         log P           P    phi     Initial       Final       Delta

CO2(g)             1.82   6.536e+01  0.654   9.638e+00   1.164e+01   2.004e+00

-----------------------------Solution composition------------------------------

	Elements           Molality       Moles

	C                 1.385e+00   1.385e+00

----------------------------Description of solution----------------------------

                                       pH  =   3.103      Charge balance
                                       pe  =   2.739      Adjusted to redox equilibrium
      Specific Conductance (µS/cm,  25°C)  = 282
                          Density (g/cm³)  =   1.01225
                               Volume (L)  =   1.04811
                        Viscosity (mPa s)  =   0.98403
                        Activity of water  =   0.977
                 Ionic strength (mol/kgw)  =   8.128e-04
                       Mass of water (kg)  =   1.000e+00
                 Total alkalinity (eq/kg)  =   1.215e-09
                       Total CO2 (mol/kg)  =   1.385e+00
                         Temperature (°C)  =  25.00
                           Pressure (atm)  = 65.36
                  Electrical balance (eq)  =  -1.215e-09
 Percent error, 100*(Cat-|An|)/(Cat+|An|)  =  -0.00
                               Iterations  =  55
                                  Total H  = 1.110124e+02
                                  Total O  = 5.827611e+01

----------------------------Distribution of species----------------------------

                                               Log       Log       Log    mole V
   Species          Molality    Activity  Molality  Activity     Gamma   cm³/mol

   H+              8.128e-04   7.882e-04    -3.090    -3.103    -0.013      0.00
   OH-             1.373e-11   1.329e-11   -10.862   -10.877    -0.014     -3.87
   H2O             5.551e+01   9.769e-01     1.744    -0.010     0.000     18.02
C(-4)         5.647e-23
   CH4             5.647e-23   5.648e-23   -22.248   -22.248     0.000     35.54
C(4)          1.385e+00
   CO2             1.327e+00   1.327e+00     0.123     0.123     0.000     34.72
   (CO2)2          2.869e-02   2.869e-02    -1.542    -1.542     0.000     68.61
   HCO3-           8.128e-04   7.874e-04    -3.090    -3.104    -0.014     24.75
   CO3-2           5.739e-11   5.055e-11   -10.241   -10.296    -0.055     -4.11
H(0)          2.811e-15
   H2              1.406e-15   1.406e-15   -14.852   -14.852     0.000     15.03
O(0)          0.000e+00
   O2              0.000e+00   0.000e+00   -62.707   -62.707     0.000     30.31

------------------------------Saturation indices-------------------------------

  Phase               SI** log IAP   log K(298 K,  65 atm)

  CH4(g)          -19.41    -22.25   -2.84  CH4
  CO2(g)            1.63      0.12   -1.51  CO2	 Pressure  65.4 atm, phi 0.654
  H2(g)           -11.74    -14.85   -3.12  H2
  H2O(g)           -1.49     -0.01    1.48  H2O
  O2(g)           -59.78    -62.71   -2.93  O2

**For a gas, SI = log10(fugacity). Fugacity = pressure * phi / 1 atm.
  For ideal gases, phi = 1.

Reaction step 16.

Using solution 1.	
Using gas phase 1.	
Using reaction 1.	

Reaction 1.	

	  2.000e+00 moles of the following reaction have been added:

	                 Relative
	Reactant            moles

	CO2                  1.00000

	                 Relative
	Element             moles
	C                    1.00000
	O                    2.00000

-----------------------------------Gas phase-----------------------------------

Total pressure: 65.36      atmospheres          (Peng-Robinson calculation)
    Gas volume:   1.00e+00 liters
  Molar volume:   7.33e-02 liters/mole
   P * Vm / RT:  0.19576  (Compressibility Factor Z) 

                                                        Moles in gas
                                            ----------------------------------
Component         log P           P    phi     Initial       Final       Delta

CO2(g)             1.82   6.536e+01  0.652   1.164e+01   1.365e+01   2.004e+00

-----------------------------Solution composition------------------------------

	Elements           Molality       Moles

	C                 1.381e+00   1.381e+00

----------------------------Description of solution----------------------------

                                       pH  =   3.104      Charge balance
                                       pe  =  14.727      Adjusted to redox equilibrium
      Specific Conductance (µS/cm,  25°C)  = 282
                          Density (g/cm³)  =   1.01222
                               Volume (L)  =   1.04799
                        Viscosity (mPa s)  =   0.98379
                        Activity of water  =   0.977
                 Ionic strength (mol/kgw)  =   8.118e-04
                       Mass of water (kg)  =   1.000e+00
                 Total alkalinity (eq/kg)  =   1.215e-09
                       Total CO2 (mol/kg)  =   1.381e+00
                         Temperature (°C)  =  25.00
                           Pressure (atm)  = 65.36
                  Electrical balance (eq)  =  -1.215e-09
 Percent error, 100*(Cat-|An|)/(Cat+|An|)  =  -0.00
                               Iterations  =  65
                                  Total H  = 1.110124e+02
                                  Total O  = 5.826889e+01

----------------------------Distribution of species----------------------------

                                               Log       Log       Log    mole V
   Species          Molality    Activity  Molality  Activity     Gamma   cm³/mol

   H+              8.118e-04   7.872e-04    -3.091    -3.104    -0.013      0.00
   OH-             1.374e-11   1.331e-11   -10.862   -10.876    -0.014     -3.87
   H2O             5.551e+01   9.770e-01     1.744    -0.010     0.000     18.02
C(-4)         0.000e+00
   CH4             0.000e+00   0.000e+00  -118.157  -118.156     0.000     35.54
C(4)          1.381e+00
   CO2             1.323e+00   1.324e+00     0.122     0.122     0.000     34.72
   (CO2)2          2.854e-02   2.855e-02    -1.545    -1.544     0.000     68.61
   HCO3-           8.118e-04   7.865e-04    -3.091    -3.104    -0.014     24.75
   CO3-2           5.739e-11   5.055e-11   -10.241   -10.296    -0.055     -4.11
H(0)          2.966e-39
   H2              1.483e-39   1.483e-39   -38.829   -38.829     0.000     15.03
O(0)          3.532e-15
   O2              1.766e-15   1.766e-15   -14.753   -14.753     0.000     30.31

------------------------------Saturation indices-------------------------------

  Phase               SI** log IAP   log K(298 K,  65 atm)

  CH4(g)         -115.31   -118.16   -2.84  CH4
  CO2(g)            1.63      0.12   -1.51  CO2	 Pressure  65.4 atm, phi 0.652
  H2(g)           -35.71    -38.83   -3.12  H2
  H2O(g)           -1.49     -0.01    1.48  H2O
  O2(g)           -11.83    -14.75   -2.93  O2

**For a gas, SI = log10(fugacity). Fugacity = pressure * phi / 1 atm.
  For ideal gases, phi = 1.

Reaction step 17.

Using solution 1.	
Using gas phase 1.	
Using reaction 1.	

Reaction 1.	

	  2.000e+00 moles of the following reaction have been added:

	                 Relative
	Reactant            moles

	CO2                  1.00000

	                 Relative
	Element             moles
	C                    1.00000
	O                    2.00000

-----------------------------------Gas phase-----------------------------------

Total pressure: 71.72      atmospheres          (Peng-Robinson calculation)
    Gas volume:   1.00e+00 liters
  Molar volume:   6.40e-02 liters/mole
   P * Vm / RT:  0.18749  (Compressibility Factor Z) 

                                                        Moles in gas
                                            ----------------------------------
Component         log P           P    phi     Initial       Final       Delta

CO2(g)             1.86   7.172e+01  0.604   1.365e+01   1.563e+01   1.989e+00

-----------------------------Solution composition------------------------------

	Elements           Molality       Moles

	C                 1.392e+00   1.392e+00

----------------------------Description of solution----------------------------

                                       pH  =   3.101      Charge balance
                                       pe  =  14.809      Adjusted to redox equilibrium
      Specific Conductance (µS/cm,  25°C)  = 284
                          Density (g/cm³)  =   1.01260
                               Volume (L)  =   1.04808
                        Viscosity (mPa s)  =   0.98447
                        Activity of water  =   0.977
                 Ionic strength (mol/kgw)  =   8.179e-04
                       Mass of water (kg)  =   1.000e+00
                 Total alkalinity (eq/kg)  =   1.215e-09
                       Total CO2 (mol/kg)  =   1.392e+00
                         Temperature (°C)  =  25.00
                           Pressure (atm)  = 71.72
                  Electrical balance (eq)  =  -1.215e-09
 Percent error, 100*(Cat-|An|)/(Cat+|An|)  =  -0.00
                               Iterations  =  39
                                  Total H  = 1.110124e+02
                                  Total O  = 5.829115e+01

----------------------------Distribution of species----------------------------

                                               Log       Log       Log    mole V
   Species          Molality    Activity  Molality  Activity     Gamma   cm³/mol

   H+              8.179e-04   7.930e-04    -3.087    -3.101    -0.013      0.00
   OH-             1.372e-11   1.328e-11   -10.863   -10.877    -0.014     -3.85
   H2O             5.551e+01   9.768e-01     1.744    -0.010     0.000     18.01
C(-4)         0.000e+00
   CH4             0.000e+00   0.000e+00  -118.787  -118.787     0.000     35.55
C(4)          1.392e+00
   CO2             1.334e+00   1.334e+00     0.125     0.125     0.000     34.72
   (CO2)2          2.899e-02   2.899e-02    -1.538    -1.538     0.000     68.60
   HCO3-           8.179e-04   7.923e-04    -3.087    -3.101    -0.014     24.76
   CO3-2           5.784e-11   5.092e-11   -10.238   -10.293    -0.055     -4.05
H(0)          2.056e-39
   H2              1.028e-39   1.028e-39   -38.988   -38.988     0.000     15.04
O(0)          7.300e-15
   O2              3.650e-15   3.651e-15   -14.438   -14.438     0.000     30.30

------------------------------Saturation indices-------------------------------

  Phase               SI** log IAP   log K(298 K,  72 atm)

  CH4(g)         -115.94   -118.79   -2.85  CH4
  CO2(g)            1.64      0.13   -1.51  CO2	 Pressure  71.7 atm, phi 0.604
  H2(g)           -35.87    -38.99   -3.12  H2
  H2O(g)           -1.49     -0.01    1.48  H2O
  O2(g)           -11.51    -14.44   -2.93  O2

**For a gas, SI = log10(fugacity). Fugacity = pressure * phi / 1 atm.
  For ideal gases, phi = 1.

Reaction step 18.

Using solution 1.	
Using gas phase 1.	
Using reaction 1.	

Reaction 1.	

	  2.000e+00 moles of the following reaction have been added:

	                 Relative
	Reactant            moles

	CO2                  1.00000

	                 Relative
	Element             moles
	C                    1.00000
	O                    2.00000

-----------------------------------Gas phase-----------------------------------

Total pressure: 96.03      atmospheres          (Peng-Robinson calculation)
    Gas volume:   1.00e+00 liters
  Molar volume:   5.68e-02 liters/mole
   P * Vm / RT:  0.22304  (Compressibility Factor Z) 

                                                        Moles in gas
                                            ----------------------------------
Component         log P           P    phi     Initial       Final       Delta

CO2(g)             1.98   9.603e+01  0.479   1.563e+01   1.760e+01   1.963e+00

-----------------------------Solution composition------------------------------

	Elements           Molality       Moles

	C                 1.429e+00   1.429e+00

----------------------------Description of solution----------------------------

                                       pH  =   3.089      Charge balance
                                       pe  =  14.862      Adjusted to redox equilibrium
      Specific Conductance (µS/cm,  25°C)  = 291
                          Density (g/cm³)  =   1.01400
                               Volume (L)  =   1.04823
                        Viscosity (mPa s)  =   0.98671
                        Activity of water  =   0.976
                 Ionic strength (mol/kgw)  =   8.396e-04
                       Mass of water (kg)  =   1.000e+00
                 Total alkalinity (eq/kg)  =   1.215e-09
                       Total CO2 (mol/kg)  =   1.429e+00
                         Temperature (°C)  =  25.00
                           Pressure (atm)  = 96.03
                  Electrical balance (eq)  =  -1.215e-09
 Percent error, 100*(Cat-|An|)/(Cat+|An|)  =  -0.00
                               Iterations  =  52
                                  Total H  = 1.110124e+02
                                  Total O  = 5.836486e+01

----------------------------Distribution of species----------------------------

                                               Log       Log       Log    mole V
   Species          Molality    Activity  Molality  Activity     Gamma   cm³/mol

   H+              8.396e-04   8.138e-04    -3.076    -3.089    -0.014      0.00
   OH-             1.365e-11   1.321e-11   -10.865   -10.879    -0.014     -3.76
   H2O             5.551e+01   9.762e-01     1.744    -0.010     0.000     17.99
C(-4)         0.000e+00
   CH4             0.000e+00   0.000e+00  -119.127  -119.127     0.000     35.58
C(4)          1.429e+00
   CO2             1.367e+00   1.368e+00     0.136     0.136     0.000     34.69
   (CO2)2          3.050e-02   3.051e-02    -1.516    -1.516     0.000     68.55
   HCO3-           8.396e-04   8.130e-04    -3.076    -3.090    -0.014     24.84
   CO3-2           5.957e-11   5.237e-11   -10.225   -10.281    -0.056     -3.84
H(0)          1.669e-39
   H2              8.347e-40   8.349e-40   -39.078   -39.078     0.000     15.06
O(0)          1.079e-14
   O2              5.396e-15   5.397e-15   -14.268   -14.268     0.000     30.26

------------------------------Saturation indices-------------------------------

  Phase               SI** log IAP   log K(298 K,  96 atm)

  CH4(g)         -116.27   -119.13   -2.86  CH4
  CO2(g)            1.66      0.14   -1.53  CO2	 Pressure  96.0 atm, phi 0.479
  H2(g)           -35.95    -39.08   -3.12  H2
  H2O(g)           -1.48     -0.01    1.47  H2O
  O2(g)           -11.32    -14.27   -2.94  O2

**For a gas, SI = log10(fugacity). Fugacity = pressure * phi / 1 atm.
  For ideal gases, phi = 1.

Reaction step 19.

Using solution 1.	
Using gas phase 1.	
Using reaction 1.	

Reaction 1.	

	  2.000e+00 moles of the following reaction have been added:

	                 Relative
	Reactant            moles

	CO2                  1.00000

	                 Relative
	Element             moles
	C                    1.00000
	O                    2.00000

-----------------------------------Gas phase-----------------------------------

Total pressure: 142.40      atmospheres          (Peng-Robinson calculation)
    Gas volume:   1.00e+00 liters
  Molar volume:   5.12e-02 liters/mole
   P * Vm / RT:  0.29784  (Compressibility Factor Z) 

                                                        Moles in gas
                                            ----------------------------------
Component         log P           P    phi     Initial       Final       Delta

CO2(g)             2.15   1.424e+02  0.358   1.760e+01   1.954e+01   1.945e+00

-----------------------------Solution composition------------------------------

	Elements           Molality       Moles

	C                 1.484e+00   1.484e+00

----------------------------Description of solution----------------------------

                                       pH  =   3.071      Charge balance
                                       pe  =  15.204      Adjusted to redox equilibrium
      Specific Conductance (µS/cm,  25°C)  = 304
                          Density (g/cm³)  =   1.01652
                               Volume (L)  =   1.04802
                        Viscosity (mPa s)  =   0.99001
                        Activity of water  =   0.975
                 Ionic strength (mol/kgw)  =   8.774e-04
                       Mass of water (kg)  =   1.000e+00
                 Total alkalinity (eq/kg)  =   1.215e-09
                       Total CO2 (mol/kg)  =   1.484e+00
                         Temperature (°C)  =  25.00
                           Pressure (atm)  = 142.40
                  Electrical balance (eq)  =  -1.214e-09
 Percent error, 100*(Cat-|An|)/(Cat+|An|)  =  -0.00
                               Iterations  =  79
                                  Total H  = 1.110124e+02
                                  Total O  = 5.847500e+01

----------------------------Distribution of species----------------------------

                                               Log       Log       Log    mole V
   Species          Molality    Activity  Molality  Activity     Gamma   cm³/mol

   H+              8.774e-04   8.499e-04    -3.057    -3.071    -0.014      0.00
   OH-             1.360e-11   1.316e-11   -10.866   -10.881    -0.015     -3.60
   H2O             5.551e+01   9.753e-01     1.744    -0.011     0.000     17.96
C(-4)         0.000e+00
   CH4             0.000e+00   0.000e+00  -121.723  -121.723     0.000     35.64
C(4)          1.484e+00
   CO2             1.418e+00   1.418e+00     0.152     0.152     0.000     34.64
   (CO2)2          3.284e-02   3.285e-02    -1.484    -1.483     0.000     68.45
   HCO3-           8.774e-04   8.491e-04    -3.057    -3.071    -0.014     24.97
   CO3-2           6.295e-11   5.521e-11   -10.201   -10.258    -0.057     -3.44
H(0)          3.668e-40
   H2              1.834e-40   1.835e-40   -39.737   -39.736     0.000     15.08
O(0)          2.129e-13
   O2              1.065e-13   1.065e-13   -12.973   -12.973     0.000     30.20

------------------------------Saturation indices-------------------------------

  Phase               SI** log IAP   log K(298 K, 142 atm)

  CH4(g)         -118.83   -121.72   -2.89  CH4
  CO2(g)            1.71      0.15   -1.56  CO2	 Pressure 142.4 atm, phi 0.358
  H2(g)           -36.60    -39.74   -3.14  H2
  H2O(g)           -1.47     -0.01    1.46  H2O
  O2(g)           -10.00    -12.97   -2.97  O2

**For a gas, SI = log10(fugacity). Fugacity = pressure * phi / 1 atm.
  For ideal gases, phi = 1.

Reaction step 20.

WARNING: Numerical method failed, switching to numerical derivatives.
WARNING: Maximum iterations exceeded, 100

WARNING: Numerical method failed with this set of convergence parameters.

WARNING: Trying smaller step size, pe step size 10, 5 ... 

Using solution 1.	
Using gas phase 1.	
Using reaction 1.	

Reaction 1.	

	  2.000e+00 moles of the following reaction have been added:

	                 Relative
	Reactant            moles

	CO2                  1.00000

	                 Relative
	Element             moles
	C                    1.00000
	O                    2.00000

-----------------------------------Gas phase-----------------------------------

Total pressure: 221.85      atmospheres          (Peng-Robinson calculation)
    Gas volume:   1.00e+00 liters
  Molar volume:   4.66e-02 liters/mole
   P * Vm / RT:  0.42236  (Compressibility Factor Z) 

                                                        Moles in gas
                                            ----------------------------------
Component         log P           P    phi     Initial       Final       Delta

CO2(g)             2.35   2.219e+02  0.269   1.954e+01   2.147e+01   1.927e+00

-----------------------------Solution composition------------------------------

	Elements           Molality       Moles

	C                 1.558e+00   1.558e+00

----------------------------Description of solution----------------------------

                                       pH  =   3.042      Charge balance
                                       pe  =  16.339      Adjusted to redox equilibrium
      Specific Conductance (µS/cm,  25°C)  = 326
                          Density (g/cm³)  =   1.02062
                               Volume (L)  =   1.04697
                        Viscosity (mPa s)  =   0.99442
                        Activity of water  =   0.974
                 Ionic strength (mol/kgw)  =   9.377e-04
                       Mass of water (kg)  =   1.000e+00
                 Total alkalinity (eq/kg)  =   1.214e-09
                       Total CO2 (mol/kg)  =   1.558e+00
                         Temperature (°C)  =  25.00
                           Pressure (atm)  = 221.85
                  Electrical balance (eq)  =  -1.214e-09
 Percent error, 100*(Cat-|An|)/(Cat+|An|)  =  -0.00
                               Iterations  =  40 (141 overall)
                                  Total H  = 1.110124e+02
[...]

Total pressure: 477.81      atmospheres          (Peng-Robinson calculation)
    Gas volume:   1.00e+00 liters
  Molar volume:   6.51e-02 liters/mole
   P * Vm / RT:  0.89525  (Compressibility Factor Z) 

                                                        Moles in gas
                                            ----------------------------------
Component         log P           P    phi     Initial       Final       Delta

CO2(g)             2.68   4.778e+02  0.630   1.350e+01   1.537e+01   1.868e+00

-----------------------------Solution composition------------------------------

	Elements           Molality       Moles

	C                 1.656e+00   1.656e+00

----------------------------Description of solution----------------------------

                                       pH  =   3.205      Charge balance
                                       pe  =   2.056      Adjusted to redox equilibrium
      Specific Conductance (µS/cm, 150°C)  = 480
                          Density (g/cm³)  =   0.94869
                               Volume (L)  =   1.13092
                        Viscosity (mPa s)  =   0.19774
                        Activity of water  =   0.974
                 Ionic strength (mol/kgw)  =   6.585e-04
                       Mass of water (kg)  =   1.000e+00
                 Total alkalinity (eq/kg)  =   2.360e-05
                       Total CO2 (mol/kg)  =   1.656e+00
                         Temperature (°C)  = 150.00
                           Pressure (atm)  = 477.81
                  Electrical balance (eq)  =  -2.360e-05
 Percent error, 100*(Cat-|An|)/(Cat+|An|)  =  -1.79
                               Iterations  =  84
                                  Total H  = 1.110125e+02
                                  Total O  = 5.881852e+01

----------------------------Distribution of species----------------------------

                                               Log       Log       Log    mole V
   Species          Molality    Activity  Molality  Activity     Gamma   cm³/mol

   H+              6.467e-04   6.238e-04    -3.189    -3.205    -0.016      0.00
   OH-             5.937e-09   5.716e-09    -8.226    -8.243    -0.016    -12.95
   H2O             5.551e+01   9.737e-01     1.744    -0.012     0.000     19.12
C(-4)         3.506e-32
   CH4             3.506e-32   3.506e-32   -31.455   -31.455     0.000     44.83
C(4)          1.656e+00
   CO2             1.432e+00   1.433e+00     0.156     0.156     0.000     41.96
   (CO2)2          1.115e-01   1.115e-01    -0.953    -0.953     0.000     83.08
   HCO3-           6.703e-04   6.458e-04    -3.174    -3.190    -0.016     22.52
   CO3-2           7.866e-11   6.778e-11   -10.104   -10.169    -0.065    -11.53
H(0)          1.362e-14
   H2              6.809e-15   6.810e-15   -14.167   -14.167     0.000     19.15
O(0)          3.662e-38
   O2              1.831e-38   1.832e-38   -37.737   -37.737     0.000     34.03

------------------------------Saturation indices-------------------------------

  Phase               SI** log IAP   log K(423 K, 478 atm)

  CH4(g)          -28.29    -31.46   -3.16  CH4
  CO2(g)            2.48      0.16   -2.32  CO2	 Pressure 477.8 atm, phi 0.630
  H2(g)           -11.10    -14.17   -3.07  H2
  H2O(g)            0.76     -0.01   -0.77  H2O
  O2(g)           -34.49    -37.74   -3.24  O2

**For a gas, SI = log10(fugacity). Fugacity = pressure * phi / 1 atm.
  For ideal gases, phi = 1.

Reaction step 18.

Using solution 1.	
Using gas phase 1.	
Using reaction 1.	

Reaction 1.	

	  2.000e+00 moles of the following reaction have been added:

	                 Relative
	Reactant            moles

	CO2                  1.00000

	                 Relative
	Element             moles
	C                    1.00000
	O                    2.00000

-----------------------------------Gas phase-----------------------------------

Total pressure: 588.36      atmospheres          (Peng-Robinson calculation)
    Gas volume:   1.00e+00 liters
  Molar volume:   5.80e-02 liters/mole
   P * Vm / RT:  0.98334  (Compressibility Factor Z) 

                                                        Moles in gas
                                            ----------------------------------
Component         log P           P    phi     Initial       Final       Delta

CO2(g)             2.77   5.884e+02  0.622   1.537e+01   1.723e+01   1.861e+00

-----------------------------Solution composition------------------------------

	Elements           Molality       Moles

	C                 1.796e+00   1.795e+00

----------------------------Description of solution----------------------------

                                       pH  =   3.168      Charge balance
                                       pe  =   1.899      Adjusted to redox equilibrium
      Specific Conductance (µS/cm, 150°C)  = 516
                          Density (g/cm³)  =   0.95499
                               Volume (L)  =   1.12987
                        Viscosity (mPa s)  =   0.20076
                        Activity of water  =   0.972
                 Ionic strength (mol/kgw)  =   7.174e-04
                       Mass of water (kg)  =   1.000e+00
                 Total alkalinity (eq/kg)  =   2.360e-05
                       Total CO2 (mol/kg)  =   1.796e+00
                         Temperature (°C)  = 150.00
                           Pressure (atm)  = 588.36
                  Electrical balance (eq)  =  -2.360e-05
 Percent error, 100*(Cat-|An|)/(Cat+|An|)  =  -1.64
                               Iterations  =  98
                                  Total H  = 1.110125e+02
                                  Total O  = 5.909721e+01

----------------------------Distribution of species----------------------------

                                               Log       Log       Log    mole V
   Species          Molality    Activity  Molality  Activity     Gamma   cm³/mol

   H+              7.056e-04   6.798e-04    -3.151    -3.168    -0.016      0.00
   OH-             6.037e-09   5.806e-09    -8.219    -8.236    -0.017    -13.15
   H2O             5.551e+01   9.717e-01     1.744    -0.012     0.000     19.02
C(-4)         1.187e-30
   CH4             1.187e-30   1.187e-30   -29.925   -29.925     0.000     44.45
C(4)          1.796e+00
   CO2             1.537e+00   1.537e+00     0.187     0.187     0.000     41.42
   (CO2)2          1.288e-01   1.288e-01    -0.890    -0.890     0.000     82.00
   HCO3-           7.291e-04   7.017e-04    -3.137    -3.154    -0.017     23.19
   CO3-2           8.637e-11   7.407e-11   -10.064   -10.130    -0.067     -9.88
H(0)          3.145e-14
   H2              1.573e-14   1.573e-14   -13.803   -13.803     0.000     18.93
O(0)          6.193e-39
   O2              3.096e-39   3.097e-39   -38.509   -38.509     0.000     33.68

------------------------------Saturation indices-------------------------------

  Phase               SI** log IAP   log K(423 K, 588 atm)

  CH4(g)          -26.70    -29.93   -3.22  CH4
  CO2(g)            2.56      0.19   -2.38  CO2	 Pressure 588.4 atm, phi 0.622
  H2(g)           -10.71    -13.80   -3.09  H2
  H2O(g)            0.79     -0.01   -0.80  H2O
  O2(g)           -35.22    -38.51   -3.29  O2

**For a gas, SI = log10(fugacity). Fugacity = pressure * phi / 1 atm.
  For ideal gases, phi = 1.

Reaction step 19.

WARNING: Numerical method failed, switching to numerical derivatives.
WARNING: Maximum iterations exceeded, 100

WARNING: Numerical method failed with this set of convergence parameters.

WARNING: Trying smaller step size, pe step size 10, 5 ... 

Using solution 1.	
Using gas phase 1.	
Using reaction 1.	

Reaction 1.	

	  2.000e+00 moles of the following reaction have been added:

	                 Relative
	Reactant            moles

	CO2                  1.00000

	                 Relative
	Element             moles
	C                    1.00000
	O                    2.00000

-----------------------------------Gas phase-----------------------------------

Total pressure: 731.30      atmospheres          (Peng-Robinson calculation)
    Gas volume:   1.00e+00 liters
  Molar volume:   5.24e-02 liters/mole
   P * Vm / RT:  1.10371  (Compressibility Factor Z) 

                                                        Moles in gas
                                            ----------------------------------
Component         log P           P    phi     Initial       Final       Delta

CO2(g)             2.86   7.313e+02  0.628   1.723e+01   1.908e+01   1.850e+00

-----------------------------Solution composition------------------------------

	Elements           Molality       Moles

	C                 1.945e+00   1.945e+00

----------------------------Description of solution----------------------------

                                       pH  =   3.126      Charge balance
                                       pe  =   8.642      Adjusted to redox equilibrium
      Specific Conductance (µS/cm, 150°C)  = 561
                          Density (g/cm³)  =   0.96280
                               Volume (L)  =   1.12756
                        Viscosity (mPa s)  =   0.20456
                        Activity of water  =   0.969
                 Ionic strength (mol/kgw)  =   7.889e-04
                       Mass of water (kg)  =   1.000e+00
                 Total alkalinity (eq/kg)  =   2.360e-05
                       Total CO2 (mol/kg)  =   1.945e+00
                         Temperature (°C)  = 150.00
                           Pressure (atm)  = 731.30
                  Electrical balance (eq)  =  -2.360e-05
 Percent error, 100*(Cat-|An|)/(Cat+|An|)  =  -1.50
                               Iterations  =  72 (173 overall)
                                  Total H  = 1.110125e+02
                                  Total O  = 5.939642e+01

----------------------------Distribution of species----------------------------

                                               Log       Log       Log    mole V
   Species          Molality    Activity  Molality  Activity     Gamma   cm³/mol

   H+              7.771e-04   7.478e-04    -3.110    -3.126    -0.017      0.00
   OH-             6.275e-09   6.026e-09    -8.202    -8.220    -0.018    -13.40
   H2O             5.551e+01   9.694e-01     1.744    -0.013     0.000     18.89
C(-4)         0.000e+00
   CH4             0.000e+00   0.000e+00   -83.578   -83.578     0.000     44.01
C(4)          1.945e+00
   CO2             1.647e+00   1.648e+00     0.217     0.217     0.000     40.78
   (CO2)2          1.484e-01   1.484e-01    -0.829    -0.828     0.000     80.72
   HCO3-           8.007e-04   7.695e-04    -3.097    -3.114    -0.017     23.98
   CO3-2           9.679e-11   8.256e-11   -10.014   -10.083    -0.069     -7.92
H(0)          1.156e-27
   H2              5.782e-28   5.783e-28   -27.238   -27.238     0.000     18.68
O(0)          4.029e-12
   O2              2.014e-12   2.015e-12   -11.696   -11.696     0.000     33.26

------------------------------Saturation indices-------------------------------

  Phase               SI** log IAP   log K(423 K, 731 atm)

  CH4(g)          -80.28    -83.58   -3.30  CH4
  CO2(g)            2.66      0.22   -2.44  CO2	 Pressure 731.3 atm, phi 0.628
  H2(g)           -24.12    -27.24   -3.12  H2
  H2O(g)            0.82     -0.01   -0.83  H2O
  O2(g)            -8.35    -11.70   -3.34  O2

**For a gas, SI = log10(fugacity). Fugacity = pressure * phi / 1 atm.
  For ideal gases, phi = 1.

Reaction step 20.

WARNING: Numerical method failed, switching to numerical derivatives.
WARNING: Maximum iterations exceeded, 100

WARNING: Numerical method failed with this set of convergence parameters.

WARNING: Trying smaller step size, pe step size 10, 5 ... 

Using solution 1.	
Using gas phase 1.	
Using reaction 1.	

Reaction 1.	

	  2.000e+00 moles of the following reaction have been added:

	                 Relative
	Reactant            moles

	CO2                  1.00000

	                 Relative
	Element             moles
	C                    1.00000
	O                    2.00000

-----------------------------------Gas phase-----------------------------------

Total pressure: 918.92      atmospheres          (Peng-Robinson calculation)
    Gas volume:   1.00e+00 liters
  Molar volume:   4.78e-02 liters/mole
   P * Vm / RT:  1.26511  (Compressibility Factor Z) 

                                                        Moles in gas
                                            ----------------------------------
Component         log P           P    phi     Initial       Final       Delta

CO2(g)             2.96   9.189e+02  0.654   1.908e+01   2.092e+01   1.837e+00

-----------------------------Solution composition------------------------------

	Elements           Molality       Moles

	C                 2.108e+00   2.108e+00

----------------------------Description of solution----------------------------

                                       pH  =   3.080      Charge balance
                                       pe  =   8.732      Adjusted to redox equilibrium
      Specific Conductance (µS/cm, 150°C)  = 615
                          Density (g/cm³)  =   0.97251
                               Volume (L)  =   1.12368
                        Viscosity (mPa s)  =   0.20942
                        Activity of water  =   0.967
                 Ionic strength (mol/kgw)  =   8.780e-04
                       Mass of water (kg)  =   1.000e+00
                 Total alkalinity (eq/kg)  =   2.360e-05
                       Total CO2 (mol/kg)  =   2.108e+00
                         Temperature (°C)  = 150.00
                           Pressure (atm)  = 918.92
                  Electrical balance (eq)  =  -2.360e-05
 Percent error, 100*(Cat-|An|)/(Cat+|An|)  =  -1.34
                               Iterations  =  43 (144 overall)
                                  Total H  = 1.110125e+02
                                  Total O  = 5.972295e+01

----------------------------Distribution of species----------------------------

                                               Log       Log       Log    mole V
   Species          Molality    Activity  Molality  Activity     Gamma   cm³/mol

   H+              8.662e-04   8.324e-04    -3.062    -3.080    -0.017      0.00
   OH-             6.733e-09   6.455e-09    -8.172    -8.190    -0.018    -13.71
   H2O             5.551e+01   9.671e-01     1.744    -0.015     0.000     18.73
C(-4)         0.000e+00
   CH4             0.000e+00   0.000e+00   -83.990   -83.990     0.000     43.50
C(4)          2.108e+00
   CO2             1.765e+00   1.765e+00     0.247     0.247     0.000     40.04
   (CO2)2          1.712e-01   1.712e-01    -0.767    -0.767     0.000     79.24
   HCO3-           8.898e-04   8.539e-04    -3.051    -3.069    -0.018     24.90
   CO3-2           1.112e-10   9.432e-11    -9.954   -10.025    -0.072     -5.64
H(0)          8.620e-28
   H2              4.310e-28   4.311e-28   -27.366   -27.365     0.000     18.38
O(0)          6.166e-12
   O2              3.083e-12   3.084e-12   -11.511   -11.511     0.000     32.77

------------------------------Saturation indices-------------------------------

  Phase               SI** log IAP   log K(423 K, 919 atm)

  CH4(g)          -80.60    -83.99   -3.39  CH4
  CO2(g)            2.78      0.25   -2.53  CO2	 Pressure 918.9 atm, phi 0.654
  H2(g)           -24.20    -27.37   -3.16  H2
  H2O(g)            0.86     -0.01   -0.87  H2O
  O2(g)            -8.10    -11.51   -3.42  O2

**For a gas, SI = log10(fugacity). Fugacity = pressure * phi / 1 atm.
  For ideal gases, phi = 1.

Reaction step 21.

WARNING: Numerical method failed, switching to numerical derivatives.
WARNING: Maximum iterations exceeded, 100

WARNING: Numerical method failed with this set of convergence parameters.

WARNING: Trying smaller step size, pe step size 10, 5 ... 

Using solution 1.	
Using gas phase 1.	
Using reaction 1.	

Reaction 1.	

	  2.000e+00 moles of the following reaction have been added:

	                 Relative
	Reactant            moles

	CO2                  1.00000

	                 Relative
	Element             moles
	C                    1.00000
	O                    2.00000

-----------------------------------Gas phase-----------------------------------

Total pressure: 1168.85      atmospheres          (Peng-Robinson calculation)
    Gas volume:   1.00e+00 liters
  Molar volume:   4.40e-02 liters/mole
   P * Vm / RT:  1.48047  (Compressibility Factor Z) 

                                                        Moles in gas
                                            ----------------------------------
Component         log P           P    phi     Initial       Final       Delta

CO2(g)             3.07   1.169e+03  0.715   2.092e+01   2.274e+01   1.819e+00

-----------------------------Solution composition------------------------------

	Elements           Molality       Moles

	C                 2.290e+00   2.290e+00

----------------------------Description of solution----------------------------

                                       pH  =   3.027      Charge balance
                                       pe  =   8.856      Adjusted to redox equilibrium
      Specific Conductance (µS/cm, 150°C)  = 682
                          Density (g/cm³)  =   0.98463
                               Volume (L)  =   1.11796
                        Viscosity (mPa s)  =   0.21571
                        Activity of water  =   0.964
                 Ionic strength (mol/kgw)  =   9.914e-04
                       Mass of water (kg)  =   1.000e+00
                 Total alkalinity (eq/kg)  =   2.360e-05
                       Total CO2 (mol/kg)  =   2.290e+00
                         Temperature (°C)  = 150.00
                           Pressure (atm)  = 1168.85
                  Electrical balance (eq)  =  -2.360e-05
 Percent error, 100*(Cat-|An|)/(Cat+|An|)  =  -1.19
                               Iterations  =  47 (148 overall)
                                  Total H  = 1.110125e+02
                                  Total O  = 6.008544e+01

----------------------------Distribution of species----------------------------

                                               Log       Log       Log    mole V
   Species          Molality    Activity  Molality  Activity     Gamma   cm³/mol

   H+              9.796e-04   9.399e-04    -3.009    -3.027    -0.018      0.00
   OH-             7.572e-09   7.247e-09    -8.121    -8.140    -0.019    -14.10
   H2O             5.551e+01   9.644e-01     1.744    -0.016     0.000     18.53
C(-4)         0.000e+00
   CH4             0.000e+00   0.000e+00   -84.653   -84.653     0.000     42.92
C(4)          2.290e+00
   CO2             1.893e+00   1.893e+00     0.277     0.277     0.000     39.19
   (CO2)2          1.980e-01   1.980e-01    -0.703    -0.703     0.000     77.53
   HCO3-           1.003e-03   9.611e-04    -2.999    -3.017    -0.019     25.96
   CO3-2           1.319e-10   1.111e-10    -9.880    -9.954    -0.075     -3.00
H(0)          5.505e-28
   H2              2.752e-28   2.753e-28   -27.560   -27.560     0.000     18.03
O(0)          1.229e-11
   O2              6.147e-12   6.149e-12   -11.211   -11.211     0.000     32.19

------------------------------Saturation indices-------------------------------

  Phase               SI** log IAP   log K(423 K, 1169 atm)

  CH4(g)          -81.13    -84.65   -3.52  CH4
  CO2(g)            2.92      0.28   -2.64  CO2	 Pressure 1168.8 atm, phi 0.715
  H2(g)           -24.34    -27.56   -3.22  H2
  H2O(g)            0.91     -0.02   -0.93  H2O
  O2(g)            -7.70    -11.21   -3.51  O2

**For a gas, SI = log10(fugacity). Fugacity = pressure * phi / 1 atm.
  For ideal gases, phi = 1.

------------------
End of simulation.
------------------

------------------------------------
Reading input data for simulation 5.
------------------------------------

