WARNING: Database file from DATABASE keyword is used; command line argument ignored.
   Input file: CO2_K_H
  Output file: CO2_K_H.out
Database file: ../database/phreeqc.dat

------------------
Reading data base.
------------------

	SOLUTION_MASTER_SPECIES
	SOLUTION_SPECIES
	PHASES
	GAS_BINARY_PARAMETERS
	EXCHANGE_MASTER_SPECIES
	EXCHANGE_SPECIES
	SURFACE_MASTER_SPECIES
	SURFACE_SPECIES
	MEAN_GAMMAS
	RATES
	END
------------------------------------
Reading input data for simulation 1.
------------------------------------

	DATABASE ../database/phreeqc.dat
	SELECTED_OUTPUT 101
	    file                 CO2_K_H_101.sel
	USER_PUNCH 101
	    headings Mu SC
	    start
	10 PUNCH STR_F$(MU, 20, 12)
	20 PUNCH STR_F$(SC, 20, 10)
	    end
	PHASES
	CO2(g) # new
		CO2 = CO2
		log_k	-1.468
		delta_h  -4.776 kcal
		analytical_expression  119.87356  2.185434e-2  -7337.8 -44.7652    669371
		t_c  304.2 # critical T, K
		p_c   72.80 # critical P, atm
		omega 0.225 # Pitzer acentric factor
	SOLUTION 1
	 pH 7 charge
	 C 1 CO2(g) -2
	 temp 0
	REACTION_TEMPERATURE 1
	 0.0 0.0 1.0 2.0 4.0 5.0 6.0 8.0 10.0 10.0 10.0 12.0 13.3 14.0 14.9 15.0 15.0 16.0 17.6 18.0 19.8 20.0 20.0 20.0 22.0 24.0 25.0 25.0 25.8 26.0 28.0 29.8 30.0 30.3 32.0 32.0 33.2 34.0 34.3 34.6 35.0 35.0 36.0 42.5 46.4 48.4 50.0 51.1 54.3 63.1 68.2 72.4 74.7 75.0 100.0 100.0 100.0 125.0 150.0 156.0 175.0 177.0 200.0 200.0 202.0 204.0 225.0 229.0 229.0 235.0 250.0 261.0 261.0 265.0 265.0 275.0 300.0 309.0 309.0 309.0 325.0 334.0 334.0 
	GAS_PHASE 1
	 fixed_volume
	 volume 0.1
	 CO2(g) 0.01
	 H2O(g) 0
	USER_GRAPH
	-headings new
	 -axis_titles "Temperature / 0C" "log(K_H) for CO2"
	10 data -1.1090, -1.0951, -1.1269, -1.1431, -1.1761, -1.1923, -1.2082, -1.2393, -1.2693, -1.2693, -1.2618, -1.2985, -1.3216, -1.3268, -1.3423, -1.3407, -1.3515, -1.3542, -1.3799, -1.3808, -1.4060, -1.4064, -1.4065, -1.4152, -1.4313, -1.4554, -1.4671, -1.4715, -1.4756, -1.4787, -1.5013, -1.5270, -1.5230, -1.5284, -1.5441, -1.5441, -1.5592, -1.5645, -1.5653, -1.5702, -1.5745, -1.5805, -1.5842, -1.6482, -1.6817, -1.6912, -1.7201, -1.7203, -1.7426, -1.8108, -1.8351, -1.8633, -1.8722, -1.8611, -1.9855, -1.9730, -1.9720, -2.0340, -2.0750, -2.0790, -2.0880, -2.0940, -2.0810, -2.0620, -2.0480, -2.0410, -2.0260, -2.0260, -2.0110, -2.0480, -1.9800, -1.9460, -1.9460, -1.9460, -1.9370, -1.9180, -1.8470, -1.8120, -1.8350, -1.8350, -1.7470, -1.7330, -1.7330, 
	20 dim d(83)
	30 read d(1), d(2), d(3), d(4), d(5), d(6), d(7), d(8), d(9), d(10), d(11), d(12), d(13), d(14), d(15), d(16), d(17), d(18), d(19), d(20), d(21), d(22), d(23), d(24), d(25), d(26), d(27), d(28), d(29), d(30), d(31), d(32), d(33), d(34), d(35), d(36), d(37), d(38), d(39), d(40), d(41), d(42), d(43), d(44), d(45), d(46), d(47), d(48), d(49), d(50), d(51), d(52), d(53), d(54), d(55), d(56), d(57), d(58), d(59), d(60), d(61), d(62), d(63), d(64), d(65), d(66), d(67), d(68), d(69), d(70), d(71), d(72), d(73), d(74), d(75), d(76), d(77), d(78), d(79), d(80), d(81), d(82), d(83)
	40 plot_xy tc,  log10(act("CO2") / (PR_P("CO2(g)") * PR_PHI("CO2(g)"))), symbol_size = 0, color = Red
	50 plot_xy tc, d(step_no), line_width = 0, color = Red 
	END
-------------------------------------------
Beginning of initial solution calculations.
-------------------------------------------

Initial solution 1.	

-----------------------------Solution composition------------------------------

	Elements           Molality       Moles

	C                 7.815e-04   7.815e-04  Equilibrium with CO2(g)

----------------------------Description of solution----------------------------

                                       pH  =   4.847      Charge balance
                                       pe  =   4.000    
      Specific Conductance (µS/cm,   0°C)  = 3
                          Density (g/cm³)  =   0.99985
                               Volume (L)  =   1.00019
                        Viscosity (mPa s)  =   1.79201
                        Activity of water  =   1.000
                 Ionic strength (mol/kgw)  =   1.429e-05
                       Mass of water (kg)  =   1.000e+00
                 Total alkalinity (eq/kg)  =  -8.713e-16
                       Total CO2 (mol/kg)  =   7.815e-04
                         Temperature (°C)  =   0.00
                  Electrical balance (eq)  =   8.713e-16
 Percent error, 100*(Cat-|An|)/(Cat+|An|)  =   0.00
                               Iterations  =   7
                                  Total H  = 1.110125e+02
                                  Total O  = 5.550779e+01

----------------------------Distribution of species----------------------------

                                               Log       Log       Log    mole V
   Species          Molality    Activity  Molality  Activity     Gamma   cm³/mol

   H+              1.429e-05   1.423e-05    -4.845    -4.847    -0.002      0.00
   OH-             8.132e-11   8.098e-11   -10.090   -10.092    -0.002     -6.19
   H2O             5.551e+01   1.000e+00     1.744    -0.000     0.000     18.02
C(-4)         0.000e+00
   CH4             0.000e+00   0.000e+00   -45.931   -45.931     0.000     32.63
C(4)          7.815e-04
   CO2             7.672e-04   7.672e-04    -3.115    -3.115     0.000     33.49
   HCO3-           1.429e-05   1.423e-05    -4.845    -4.847    -0.002     21.08
   (CO2)2          1.966e-09   1.966e-09    -8.706    -8.706     0.000     66.14
   CO3-2           2.392e-11   2.352e-11   -10.621   -10.629    -0.007     -9.37
H(0)          3.762e-21
   H2              1.881e-21   1.881e-21   -20.726   -20.726     0.000     12.27
O(0)          0.000e+00
   O2              0.000e+00   0.000e+00   -60.020   -60.020     0.000     27.49

------------------------------Saturation indices-------------------------------

  Phase               SI** log IAP   log K(273 K,   1 atm)

  CH4(g)          -43.46    -45.93   -2.47  CH4
  CO2(g)           -2.00     -3.12   -1.12  CO2	 Pressure   0.0 atm, phi 1.000
  H2(g)           -17.70    -20.73   -3.03  H2
  H2O(g)           -2.21     -0.00    2.21  H2O
  O2(g)           -57.36    -60.02   -2.66  O2

**For a gas, SI = log10(fugacity). Fugacity = pressure * phi / 1 atm.
  For ideal gases, phi = 1.

-----------------------------------------
Beginning of batch-reaction calculations.
-----------------------------------------

Reaction step 1.

Using solution 1.	
Using gas phase 1.	
Using temperature 1.	

-----------------------------------Gas phase-----------------------------------

Total pressure:  0.02      atmospheres          (Peng-Robinson calculation)
    Gas volume:   1.00e-01 liters
  Molar volume:   1.39e+03 liters/mole
   P * Vm / RT:  0.99984  (Compressibility Factor Z) 

                                                        Moles in gas
                                            ----------------------------------
Component         log P           P    phi     Initial       Final       Delta

CO2(g)            -2.00   9.955e-03  1.000   4.088e-05   4.442e-05   3.543e-06
H2O(g)            -2.21   6.170e-03  1.000   0.000e+00   2.753e-05   2.753e-05

-----------------------------Solution composition------------------------------

	Elements           Molality       Moles

	C                 7.780e-04   7.780e-04

----------------------------Description of solution----------------------------

                                       pH  =   4.848      Charge balance
                                       pe  =  15.485      Adjusted to redox equilibrium
      Specific Conductance (µS/cm,   0°C)  = 3
                          Density (g/cm³)  =   0.99980
                               Volume (L)  =   1.00024
                        Viscosity (mPa s)  =   1.79223
                        Activity of water  =   1.000
                 Ionic strength (mol/kgw)  =   1.426e-05
                       Mass of water (kg)  =   1.000e+00
                 Total alkalinity (eq/kg)  =  -8.702e-16
                       Total CO2 (mol/kg)  =   7.780e-04
                         Temperature (°C)  =   0.00
                           Pressure (atm)  =  0.02
                  Electrical balance (eq)  =   8.702e-16
 Percent error, 100*(Cat-|An|)/(Cat+|An|)  =   0.00
                               Iterations  =  11
                                  Total H  = 1.110124e+02
                                  Total O  = 5.550776e+01

----------------------------Distribution of species----------------------------

                                               Log       Log       Log    mole V
   Species          Molality    Activity  Molality  Activity     Gamma   cm³/mol

   H+              1.426e-05   1.420e-05    -4.846    -4.848    -0.002      0.00
   OH-             8.151e-11   8.116e-11   -10.089   -10.091    -0.002     -6.20
   H2O             5.551e+01   1.000e+00     1.744    -0.000     0.000     18.02
C(-4)         0.000e+00
   CH4             0.000e+00   0.000e+00  -137.820  -137.820     0.000     32.63
C(4)          7.780e-04
   CO2             7.637e-04   7.637e-04    -3.117    -3.117     0.000     33.49
   HCO3-           1.426e-05   1.420e-05    -4.846    -4.848    -0.002     21.08
   (CO2)2          1.948e-09   1.948e-09    -8.710    -8.710     0.000     66.14
   CO3-2           2.392e-11   2.352e-11   -10.621   -10.629    -0.007     -9.38
H(0)          0.000e+00
   H2              0.000e+00   0.000e+00   -43.697   -43.697     0.000     12.27
O(0)          1.675e-14
   O2              8.376e-15   8.376e-15   -14.077   -14.077     0.000     27.49

------------------------------Saturation indices-------------------------------

  Phase               SI** log IAP   log K(273 K,   0 atm)

  CH4(g)         -135.35   -137.82   -2.47  CH4
  CO2(g)           -2.00     -3.12   -1.12  CO2	 Pressure   0.0 atm, phi 1.000
  H2(g)           -40.67    -43.70   -3.03  H2
  H2O(g)           -2.21     -0.00    2.21  H2O	 Pressure   0.0 atm, phi 1.000
  O2(g)           -11.42    -14.08   -2.66  O2

**For a gas, SI = log10(fugacity). Fugacity = pressure * phi / 1 atm.
  For ideal gases, phi = 1.

Reaction step 2.

Using solution 1.	
Using gas phase 1.	
Using temperature 1.	

-----------------------------------Gas phase-----------------------------------

Total pressure:  0.02      atmospheres          (Peng-Robinson calculation)
    Gas volume:   1.00e-01 liters
  Molar volume:   1.39e+03 liters/mole
   P * Vm / RT:  0.99984  (Compressibility Factor Z) 

                                                        Moles in gas
                                            ----------------------------------
Component         log P           P    phi     Initial       Final       Delta

CO2(g)            -2.00   9.955e-03  1.000   4.088e-05   4.442e-05   3.543e-06
H2O(g)            -2.21   6.170e-03  1.000   0.000e+00   2.753e-05   2.753e-05

-----------------------------Solution composition------------------------------

	Elements           Molality       Moles

	C                 7.780e-04   7.780e-04

----------------------------Description of solution----------------------------

                                       pH  =   4.848      Charge balance
                                       pe  =  15.485      Adjusted to redox equilibrium
      Specific Conductance (µS/cm,   0°C)  = 3
                          Density (g/cm³)  =   0.99980
                               Volume (L)  =   1.00024
                        Viscosity (mPa s)  =   1.79223
                        Activity of water  =   1.000
                 Ionic strength (mol/kgw)  =   1.426e-05
                       Mass of water (kg)  =   1.000e+00
                 Total alkalinity (eq/kg)  =  -8.702e-16
                       Total CO2 (mol/kg)  =   7.780e-04
                         Temperature (°C)  =   0.00
                           Pressure (atm)  =  0.02
                  Electrical balance (eq)  =   8.702e-16
 Percent error, 100*(Cat-|An|)/(Cat+|An|)  =   0.00
                               Iterations  =  11
                                  Total H  = 1.110124e+02
                                  Total O  = 5.550776e+01

----------------------------Distribution of species----------------------------

                                               Log       Log       Log    mole V
   Species          Molality    Activity  Molality  Activity     Gamma   cm³/mol

   H+              1.426e-05   1.420e-05    -4.846    -4.848    -0.002      0.00
   OH-             8.151e-11   8.116e-11   -10.089   -10.091    -0.002     -6.20
   H2O             5.551e+01   1.000e+00     1.744    -0.000     0.000     18.02
C(-4)         0.000e+00
   CH4             0.000e+00   0.000e+00  -137.820  -137.820     0.000     32.63
C(4)          7.780e-04
   CO2             7.637e-04   7.637e-04    -3.117    -3.117     0.000     33.49
   HCO3-           1.426e-05   1.420e-05    -4.846    -4.848    -0.002     21.08
   (CO2)2          1.948e-09   1.948e-09    -8.710    -8.710     0.000     66.14
   CO3-2           2.392e-11   2.352e-11   -10.621   -10.629    -0.007     -9.38
H(0)          0.000e+00
   H2              0.000e+00   0.000e+00   -43.697   -43.697     0.000     12.27
O(0)          1.675e-14
   O2              8.376e-15   8.376e-15   -14.077   -14.077     0.000     27.49

------------------------------Saturation indices-------------------------------

  Phase               SI** log IAP   log K(273 K,   0 atm)

  CH4(g)         -135.35   -137.82   -2.47  CH4
  CO2(g)           -2.00     -3.12   -1.12  CO2	 Pressure   0.0 atm, phi 1.000
  H2(g)           -40.67    -43.70   -3.03  H2
  H2O(g)           -2.21     -0.00    2.21  H2O	 Pressure   0.0 atm, phi 1.000
  O2(g)           -11.42    -14.08   -2.66  O2

**For a gas, SI = log10(fugacity). Fugacity = pressure * phi / 1 atm.
  For ideal gases, phi = 1.

Reaction step 3.

Using solution 1.	
Using gas phase 1.	
Using temperature 1.	

-----------------------------------Gas phase-----------------------------------

Total pressure:  0.02      atmospheres          (Peng-Robinson calculation)
    Gas volume:   1.00e-01 liters
  Molar volume:   1.33e+03 liters/mole
   P * Vm / RT:  0.99983  (Compressibility Factor Z) 

                                                        Moles in gas
                                            ----------------------------------
Component         log P           P    phi     Initial       Final       Delta

CO2(g)            -1.99   1.032e-02  1.000   4.088e-05   4.587e-05   4.999e-06
H2O(g)            -2.18   6.627e-03  1.000   0.000e+00   2.946e-05   2.946e-05

-----------------------------Solution composition------------------------------

	Elements           Molality       Moles

	C                 7.765e-04   7.765e-04

----------------------------Description of solution----------------------------

                                       pH  =   4.842      Charge balance
                                       pe  =  15.079      Adjusted to redox equilibrium
      Specific Conductance (µS/cm,   1°C)  = 3
                          Density (g/cm³)  =   0.99986
                               Volume (L)  =   1.00018
                        Viscosity (mPa s)  =   1.73146
                        Activity of water  =   1.000
                 Ionic strength (mol/kgw)  =   1.446e-05
                       Mass of water (kg)  =   1.000e+00
                 Total alkalinity (eq/kg)  =  -8.715e-16
                       Total CO2 (mol/kg)  =   7.765e-04
                         Temperature (°C)  =   1.00
                           Pressure (atm)  =  0.02
                  Electrical balance (eq)  =   8.715e-16
 Percent error, 100*(Cat-|An|)/(Cat+|An|)  =   0.00
                               Iterations  =  16
                                  Total H  = 1.110124e+02
                                  Total O  = 5.550775e+01

----------------------------Distribution of species----------------------------

                                               Log       Log       Log    mole V
   Species          Molality    Activity  Molality  Activity     Gamma   cm³/mol

   H+              1.446e-05   1.440e-05    -4.840    -4.842    -0.002      0.00
   OH-             8.866e-11   8.828e-11   -10.052   -10.054    -0.002     -6.06
   H2O             5.551e+01   1.000e+00     1.744    -0.000     0.000     18.02
C(-4)         0.000e+00
   CH4             0.000e+00   0.000e+00  -134.677  -134.677     0.000     32.78
C(4)          7.765e-04
   CO2             7.620e-04   7.620e-04    -3.118    -3.118     0.000     33.55
   HCO3-           1.446e-05   1.440e-05    -4.840    -4.842    -0.002     21.31
   (CO2)2          2.094e-09   2.094e-09    -8.679    -8.679     0.000     66.26
   CO3-2           2.479e-11   2.437e-11   -10.606   -10.613    -0.007     -9.06
H(0)          0.000e+00
   H2              0.000e+00   0.000e+00   -42.879   -42.879     0.000     12.43
O(0)          9.668e-16
   O2              4.834e-16   4.834e-16   -15.316   -15.316     0.000     27.66

------------------------------Saturation indices-------------------------------

  Phase               SI** log IAP   log K(274 K,   0 atm)

  CH4(g)         -132.18   -134.68   -2.49  CH4
  CO2(g)           -1.99     -3.12   -1.13  CO2	 Pressure   0.0 atm, phi 1.000
  H2(g)           -39.85    -42.88   -3.03  H2
  H2O(g)           -2.18     -0.00    2.18  H2O	 Pressure   0.0 atm, phi 1.000
  O2(g)           -12.65    -15.32   -2.67  O2

**For a gas, SI = log10(fugacity). Fugacity = pressure * phi / 1 atm.
  For ideal gases, phi = 1.

Reaction step 4.

Using solution 1.	
Using gas phase 1.	
Using temperature 1.	

-----------------------------------Gas phase-----------------------------------

Total pressure:  0.02      atmospheres          (Peng-Robinson calculation)
    Gas volume:   1.00e-01 liters
  Molar volume:   1.27e+03 liters/mole
   P * Vm / RT:  0.99982  (Compressibility Factor Z) 

                                                        Moles in gas
                                            ----------------------------------
Component         log P           P    phi     Initial       Final       Delta

CO2(g)            -1.97   1.069e-02  1.000   4.088e-05   4.735e-05   6.473e-06
H2O(g)            -2.15   7.113e-03  1.000   0.000e+00   3.151e-05   3.151e-05

-----------------------------Solution composition------------------------------

	Elements           Molality       Moles

	C                 7.750e-04   7.750e-04

----------------------------Description of solution----------------------------

                                       pH  =   4.836      Charge balance
                                       pe  =  14.983      Adjusted to redox equilibrium
      Specific Conductance (µS/cm,   2°C)  = 3
                          Density (g/cm³)  =   0.99990
                               Volume (L)  =   1.00014
                        Viscosity (mPa s)  =   1.67392
                        Activity of water  =   1.000
                 Ionic strength (mol/kgw)  =   1.466e-05
                       Mass of water (kg)  =   1.000e+00
                 Total alkalinity (eq/kg)  =  -8.716e-16
                       Total CO2 (mol/kg)  =   7.750e-04
                         Temperature (°C)  =   2.00
                           Pressure (atm)  =  0.02
                  Electrical balance (eq)  =   8.716e-16
 Percent error, 100*(Cat-|An|)/(Cat+|An|)  =   0.00
                               Iterations  =  17
                                  Total H  = 1.110124e+02
                                  Total O  = 5.550775e+01

----------------------------Distribution of species----------------------------

                                               Log       Log       Log    mole V
   Species          Molality    Activity  Molality  Activity     Gamma   cm³/mol

   H+              1.466e-05   1.460e-05    -4.834    -4.836    -0.002      0.00
   OH-             9.639e-11   9.597e-11   -10.016   -10.018    -0.002     -5.92
   H2O             5.551e+01   1.000e+00     1.744    -0.000     0.000     18.02
C(-4)         0.000e+00
   CH4             0.000e+00   0.000e+00  -134.006  -134.006     0.000     32.93
C(4)          7.750e-04
   CO2             7.604e-04   7.604e-04    -3.119    -3.119     0.000     33.61
   HCO3-           1.466e-05   1.460e-05    -4.834    -4.836    -0.002     21.52
   (CO2)2          2.248e-09   2.248e-09    -8.648    -8.648     0.000     66.39
   CO3-2           2.568e-11   2.524e-11   -10.590   -10.598    -0.007     -8.76
H(0)          0.000e+00
   H2              0.000e+00   0.000e+00   -42.679   -42.679     0.000     12.58
O(0)          9.553e-16
   O2              4.776e-16   4.776e-16   -15.321   -15.321     0.000     27.83

------------------------------Saturation indices-------------------------------

  Phase               SI** log IAP   log K(275 K,   0 atm)

  CH4(g)         -131.50   -134.01   -2.51  CH4
  CO2(g)           -1.97     -3.12   -1.15  CO2	 Pressure   0.0 atm, phi 1.000
  H2(g)           -39.65    -42.68   -3.03  H2
  H2O(g)           -2.15     -0.00    2.15  H2O	 Pressure   0.0 atm, phi 1.000
  O2(g)           -12.64    -15.32   -2.68  O2

**For a gas, SI = log10(fugacity). Fugacity = pressure * phi / 1 atm.
  For ideal gases, phi = 1.

Reaction step 5.

Using solution 1.	
Using gas phase 1.	
Using temperature 1.	

-----------------------------------Gas phase-----------------------------------

Total pressure:  0.02      atmospheres          (Peng-Robinson calculation)
    Gas volume:   1.00e-01 liters
  Molar volume:   1.16e+03 liters/mole
   P * Vm / RT:  0.99980  (Compressibility Factor Z) 

                                                        Moles in gas
                                            ----------------------------------
Component         log P           P    phi     Initial       Final       Delta

CO2(g)            -1.94   1.145e-02  1.000   4.088e-05   5.035e-05   9.478e-06
H2O(g)            -2.09   8.182e-03  1.000   0.000e+00   3.598e-05   3.598e-05

-----------------------------Solution composition------------------------------

	Elements           Molality       Moles

	C                 7.720e-04   7.720e-04

----------------------------Description of solution----------------------------

                                       pH  =   4.824      Charge balance
                                       pe  =  14.816      Adjusted to redox equilibrium
      Specific Conductance (µS/cm,   4°C)  = 4
                          Density (g/cm³)  =   0.99993
                               Volume (L)  =   1.00010
                        Viscosity (mPa s)  =   1.56764
                        Activity of water  =   1.000
                 Ionic strength (mol/kgw)  =   1.505e-05
                       Mass of water (kg)  =   1.000e+00
                 Total alkalinity (eq/kg)  =  -8.716e-16
                       Total CO2 (mol/kg)  =   7.720e-04
                         Temperature (°C)  =   4.00
                           Pressure (atm)  =  0.02
                  Electrical balance (eq)  =   8.716e-16
 Percent error, 100*(Cat-|An|)/(Cat+|An|)  =   0.00
                               Iterations  =  18
                                  Total H  = 1.110124e+02
                                  Total O  = 5.550774e+01

----------------------------Distribution of species----------------------------

                                               Log       Log       Log    mole V
   Species          Molality    Activity  Molality  Activity     Gamma   cm³/mol

   H+              1.505e-05   1.498e-05    -4.823    -4.824    -0.002      0.00
   OH-             1.137e-10   1.132e-10    -9.944    -9.946    -0.002     -5.67
   H2O             5.551e+01   1.000e+00     1.744    -0.000     0.000     18.02
C(-4)         0.000e+00
   CH4             0.000e+00   0.000e+00  -132.880  -132.880     0.000     33.22
C(4)          7.720e-04
   CO2             7.570e-04   7.570e-04    -3.121    -3.121     0.000     33.73
   HCO3-           1.505e-05   1.498e-05    -4.823    -4.824    -0.002     21.92
   (CO2)2          2.582e-09   2.582e-09    -8.588    -8.588     0.000     66.63
   CO3-2           2.748e-11   2.700e-11   -10.561   -10.569    -0.008     -8.20
H(0)          0.000e+00
   H2              0.000e+00   0.000e+00   -42.333   -42.333     0.000     12.88
O(0)          1.173e-15
   O2              5.864e-16   5.864e-16   -15.232   -15.232     0.000     28.14

------------------------------Saturation indices-------------------------------

  Phase               SI** log IAP   log K(277 K,   0 atm)

  CH4(g)         -130.34   -132.88   -2.54  CH4
  CO2(g)           -1.94     -3.12   -1.18  CO2	 Pressure   0.0 atm, phi 1.000
  H2(g)           -39.29    -42.33   -3.04  H2
  H2O(g)           -2.09     -0.00    2.09  H2O	 Pressure   0.0 atm, phi 1.000
  O2(g)           -12.53    -15.23   -2.70  O2

**For a gas, SI = log10(fugacity). Fugacity = pressure * phi / 1 atm.
  For ideal gases, phi = 1.

Reaction step 6.

Using solution 1.	
Using gas phase 1.	
Using temperature 1.	

-----------------------------------Gas phase-----------------------------------

Total pressure:  0.02      atmospheres          (Peng-Robinson calculation)
    Gas volume:   1.00e-01 liters
  Molar volume:   1.11e+03 liters/mole
   P * Vm / RT:  0.99979  (Compressibility Factor Z) 

                                                        Moles in gas
                                            ----------------------------------
Component         log P           P    phi     Initial       Final       Delta

CO2(g)            -1.93   1.184e-02  1.000   4.088e-05   5.188e-05   1.101e-05
H2O(g)            -2.06   8.768e-03  1.000   0.000e+00   3.842e-05   3.842e-05

-----------------------------Solution composition------------------------------

	Elements           Molality       Moles

	C                 7.705e-04   7.705e-04

----------------------------Description of solution----------------------------

                                       pH  =   4.819      Charge balance
                                       pe  =  14.707      Adjusted to redox equilibrium
      Specific Conductance (µS/cm,   5°C)  = 4
                          Density (g/cm³)  =   0.99992
                               Volume (L)  =   1.00011
                        Viscosity (mPa s)  =   1.51850
                        Activity of water  =   1.000
                 Ionic strength (mol/kgw)  =   1.523e-05
                       Mass of water (kg)  =   1.000e+00
                 Total alkalinity (eq/kg)  =  -8.714e-16
                       Total CO2 (mol/kg)  =   7.705e-04
                         Temperature (°C)  =   5.00
                           Pressure (atm)  =  0.02
                  Electrical balance (eq)  =   8.714e-16
 Percent error, 100*(Cat-|An|)/(Cat+|An|)  =   0.00
                               Iterations  =  18
                                  Total H  = 1.110124e+02
                                  Total O  = 5.550773e+01

----------------------------Distribution of species----------------------------

                                               Log       Log       Log    mole V
   Species          Molality    Activity  Molality  Activity     Gamma   cm³/mol

   H+              1.523e-05   1.517e-05    -4.817    -4.819    -0.002      0.00
   OH-             1.234e-10   1.229e-10    -9.909    -9.910    -0.002     -5.55
   H2O             5.551e+01   1.000e+00     1.744    -0.000     0.000     18.02
C(-4)         0.000e+00
   CH4             0.000e+00   0.000e+00  -132.117  -132.117     0.000     33.36
C(4)          7.705e-04
   CO2             7.553e-04   7.553e-04    -3.122    -3.122     0.000     33.79
   HCO3-           1.523e-05   1.517e-05    -4.817    -4.819    -0.002     22.11
   (CO2)2          2.762e-09   2.762e-09    -8.559    -8.559     0.000     66.74
   CO3-2           2.839e-11   2.790e-11   -10.547   -10.554    -0.008     -7.94
H(0)          0.000e+00
   H2              0.000e+00   0.000e+00   -42.110   -42.110     0.000     13.01
O(0)          1.022e-15
   O2              5.112e-16   5.112e-16   -15.291   -15.291     0.000     28.29

------------------------------Saturation indices-------------------------------

  Phase               SI** log IAP   log K(278 K,   0 atm)

  CH4(g)         -129.56   -132.12   -2.56  CH4
  CO2(g)           -1.93     -3.12   -1.20  CO2	 Pressure   0.0 atm, phi 1.000
  H2(g)           -39.07    -42.11   -3.05  H2
  H2O(g)           -2.06     -0.00    2.06  H2O	 Pressure   0.0 atm, phi 1.000
  O2(g)           -12.58    -15.29   -2.71  O2

**For a gas, SI = log10(fugacity). Fugacity = pressure * phi / 1 atm.
  For ideal gases, phi = 1.

Reaction step 7.

Using solution 1.	
Using gas phase 1.	
Using temperature 1.	

-----------------------------------Gas phase-----------------------------------

Total pressure:  0.02      atmospheres          (Peng-Robinson calculation)
    Gas volume:   1.00e-01 liters
  Molar volume:   1.06e+03 liters/mole
   P * Vm / RT:  0.99978  (Compressibility Factor Z) 

                                                        Moles in gas
                                            ----------------------------------
Component         log P           P    phi     Initial       Final       Delta

CO2(g)            -1.91   1.224e-02  1.000   4.088e-05   5.343e-05   1.255e-05
H2O(g)            -2.03   9.391e-03  1.000   0.000e+00   4.100e-05   4.100e-05

-----------------------------Solution composition------------------------------

	Elements           Molality       Moles

	C                 7.690e-04   7.690e-04

----------------------------Description of solution----------------------------

                                       pH  =   4.814      Charge balance
                                       pe  =  14.600      Adjusted to redox equilibrium
      Specific Conductance (µS/cm,   6°C)  = 4
                          Density (g/cm³)  =   0.99990
                               Volume (L)  =   1.00013
                        Viscosity (mPa s)  =   1.47178
                        Activity of water  =   1.000
                 Ionic strength (mol/kgw)  =   1.542e-05
                       Mass of water (kg)  =   1.000e+00
                 Total alkalinity (eq/kg)  =  -8.715e-16
                       Total CO2 (mol/kg)  =   7.690e-04
                         Temperature (°C)  =   6.00
                           Pressure (atm)  =  0.02
                  Electrical balance (eq)  =   8.715e-16
 Percent error, 100*(Cat-|An|)/(Cat+|An|)  =   0.00
                               Iterations  =  18
                                  Total H  = 1.110124e+02
                                  Total O  = 5.550773e+01

----------------------------Distribution of species----------------------------

                                               Log       Log       Log    mole V
   Species          Molality    Activity  Molality  Activity     Gamma   cm³/mol

   H+              1.542e-05   1.535e-05    -4.812    -4.814    -0.002      0.00
   OH-             1.339e-10   1.333e-10    -9.873    -9.875    -0.002     -5.44
   H2O             5.551e+01   1.000e+00     1.744    -0.000     0.000     18.02
C(-4)         0.000e+00
   CH4             0.000e+00   0.000e+00  -131.365  -131.365     0.000     33.49
C(4)          7.690e-04
   CO2             7.535e-04   7.535e-04    -3.123    -3.123     0.000     33.85
   HCO3-           1.542e-05   1.535e-05    -4.812    -4.814    -0.002     22.29
   (CO2)2          2.950e-09   2.950e-09    -8.530    -8.530     0.000     66.86
   CO3-2           2.932e-11   2.881e-11   -10.533   -10.541    -0.008     -7.70
H(0)          0.000e+00
   H2              0.000e+00   0.000e+00   -41.890   -41.890     0.000     13.15
O(0)          8.970e-16
   O2              4.485e-16   4.485e-16   -15.348   -15.348     0.000     28.43

------------------------------Saturation indices-------------------------------

  Phase               SI** log IAP   log K(279 K,   0 atm)

  CH4(g)         -128.79   -131.36   -2.57  CH4
  CO2(g)           -1.91     -3.12   -1.21  CO2	 Pressure   0.0 atm, phi 1.000
  H2(g)           -38.84    -41.89   -3.05  H2
  H2O(g)           -2.03     -0.00    2.03  H2O	 Pressure   0.0 atm, phi 1.000
  O2(g)           -12.62    -15.35   -2.73  O2

**For a gas, SI = log10(fugacity). Fugacity = pressure * phi / 1 atm.
  For ideal gases, phi = 1.

Reaction step 8.

Using solution 1.	
Using gas phase 1.	
Using temperature 1.	

-----------------------------------Gas phase-----------------------------------

Total pressure:  0.02      atmospheres          (Peng-Robinson calculation)
    Gas volume:   1.00e-01 liters
  Molar volume:   9.69e+02 liters/mole
   P * Vm / RT:  0.99976  (Compressibility Factor Z) 

                                                        Moles in gas
                                            ----------------------------------
Component         log P           P    phi     Initial       Final       Delta

CO2(g)            -1.88   1.305e-02  1.000   4.088e-05   5.656e-05   1.569e-05
H2O(g)            -1.97   1.076e-02  1.000   0.000e+00   4.663e-05   4.663e-05

-----------------------------Solution composition------------------------------

	Elements           Molality       Moles

	C                 7.658e-04   7.658e-04

----------------------------Description of solution----------------------------

                                       pH  =   4.804      Charge balance
                                       pe  =  14.415      Adjusted to redox equilibrium
      Specific Conductance (µS/cm,   8°C)  = 4
                          Density (g/cm³)  =   0.99981
                               Volume (L)  =   1.00022
                        Viscosity (mPa s)  =   1.38499
                        Activity of water  =   1.000
                 Ionic strength (mol/kgw)  =   1.577e-05
                       Mass of water (kg)  =   1.000e+00
                 Total alkalinity (eq/kg)  =  -8.716e-16
                       Total CO2 (mol/kg)  =   7.658e-04
                         Temperature (°C)  =   8.00
                           Pressure (atm)  =  0.02
                  Electrical balance (eq)  =   8.716e-16
 Percent error, 100*(Cat-|An|)/(Cat+|An|)  =   0.00
                               Iterations  =  18
                                  Total H  = 1.110124e+02
                                  Total O  = 5.550772e+01

----------------------------Distribution of species----------------------------

                                               Log       Log       Log    mole V
   Species          Molality    Activity  Molality  Activity     Gamma   cm³/mol

   H+              1.577e-05   1.570e-05    -4.802    -4.804    -0.002      0.00
   OH-             1.573e-10   1.566e-10    -9.803    -9.805    -0.002     -5.23
   H2O             5.551e+01   1.000e+00     1.744    -0.000     0.000     18.02
C(-4)         0.000e+00
   CH4             0.000e+00   0.000e+00  -130.103  -130.103     0.000     33.74
C(4)          7.658e-04
   CO2             7.500e-04   7.500e-04    -3.125    -3.125     0.000     33.96
   HCO3-           1.577e-05   1.570e-05    -4.802    -4.804    -0.002     22.62
   (CO2)2          3.356e-09   3.356e-09    -8.474    -8.474     0.000     67.08
   CO3-2           3.120e-11   3.065e-11   -10.506   -10.514    -0.008     -7.24
H(0)          0.000e+00
   H2              0.000e+00   0.000e+00   -41.511   -41.511     0.000     13.40
O(0)          8.968e-16
   O2              4.484e-16   4.484e-16   -15.348   -15.348     0.000     28.70

------------------------------Saturation indices-------------------------------

  Phase               SI** log IAP   log K(281 K,   0 atm)

  CH4(g)         -127.50   -130.10   -2.60  CH4
  CO2(g)           -1.88     -3.12   -1.24  CO2	 Pressure   0.0 atm, phi 1.000
  H2(g)           -38.46    -41.51   -3.06  H2
  H2O(g)           -1.97     -0.00    1.97  H2O	 Pressure   0.0 atm, phi 1.000
  O2(g)           -12.60    -15.35   -2.75  O2

**For a gas, SI = log10(fugacity). Fugacity = pressure * phi / 1 atm.
  For ideal gases, phi = 1.

Reaction step 9.

Using solution 1.	
Using gas phase 1.	
Using temperature 1.	

-----------------------------------Gas phase-----------------------------------

Total pressure:  0.03      atmospheres          (Peng-Robinson calculation)
    Gas volume:   1.00e-01 liters
  Molar volume:   8.88e+02 liters/mole
   P * Vm / RT:  0.99974  (Compressibility Factor Z) 

                                                        Moles in gas
                                            ----------------------------------
Component         log P           P    phi     Initial       Final       Delta

CO2(g)            -1.86   1.388e-02  1.000   4.088e-05   5.975e-05   1.888e-05
H2O(g)            -1.91   1.229e-02  1.000   0.000e+00   5.292e-05   5.292e-05

-----------------------------Solution composition------------------------------

	Elements           Molality       Moles

	C                 7.626e-04   7.626e-04

----------------------------Description of solution----------------------------

                                       pH  =   4.795      Charge balance
                                       pe  =  14.233      Adjusted to redox equilibrium
      Specific Conductance (µS/cm,  10°C)  = 4
                          Density (g/cm³)  =   0.99966
                               Volume (L)  =   1.00037
                        Viscosity (mPa s)  =   1.30613
                        Activity of water  =   1.000
                 Ionic strength (mol/kgw)  =   1.610e-05
                       Mass of water (kg)  =   1.000e+00
                 Total alkalinity (eq/kg)  =  -8.714e-16
                       Total CO2 (mol/kg)  =   7.626e-04
                         Temperature (°C)  =  10.00
                           Pressure (atm)  =  0.03
                  Electrical balance (eq)  =   8.714e-16
 Percent error, 100*(Cat-|An|)/(Cat+|An|)  =   0.00
                               Iterations  =  19
                                  Total H  = 1.110124e+02
                                  Total O  = 5.550770e+01

----------------------------Distribution of species----------------------------

                                               Log       Log       Log    mole V
   Species          Molality    Activity  Molality  Activity     Gamma   cm³/mol

   H+              1.610e-05   1.603e-05    -4.793    -4.795    -0.002      0.00
   OH-             1.844e-10   1.835e-10    -9.734    -9.736    -0.002     -5.05
   H2O             5.551e+01   1.000e+00     1.744    -0.000     0.000     18.02
C(-4)         0.000e+00
   CH4             0.000e+00   0.000e+00  -128.862  -128.862     0.000     33.98
C(4)          7.626e-04
   CO2             7.465e-04   7.465e-04    -3.127    -3.127     0.000     34.06
   HCO3-           1.610e-05   1.603e-05    -4.793    -4.795    -0.002     22.93
   (CO2)2          3.799e-09   3.799e-09    -8.420    -8.420     0.000     67.29
   CO3-2           3.312e-11   3.252e-11   -10.480   -10.488    -0.008     -6.83
H(0)          0.000e+00
   H2              0.000e+00   0.000e+00   -41.138   -41.138     0.000     13.63
O(0)          8.969e-16
   O2              4.485e-16   4.485e-16   -15.348   -15.348     0.000     28.95

------------------------------Saturation indices-------------------------------

  Phase               SI** log IAP   log K(283 K,   0 atm)

  CH4(g)         -126.23   -128.86   -2.63  CH4
  CO2(g)           -1.86     -3.13   -1.27  CO2	 Pressure   0.0 atm, phi 1.000
  H2(g)           -38.08    -41.14   -3.06  H2
  H2O(g)           -1.91     -0.00    1.91  H2O	 Pressure   0.0 atm, phi 1.000
  O2(g)           -12.58    -15.35   -2.77  O2

**For a gas, SI = log10(fugacity). Fugacity = pressure * phi / 1 atm.
  For ideal gases, phi = 1.

Reaction step 10.

Using solution 1.	
Using gas phase 1.	
Using temperature 1.	

-----------------------------------Gas phase-----------------------------------

Total pressure:  0.03      atmospheres          (Peng-Robinson calculation)
    Gas volume:   1.00e-01 liters
  Molar volume:   8.88e+02 liters/mole
   P * Vm / RT:  0.99974  (Compressibility Factor Z) 

                                                        Moles in gas
                                            ----------------------------------
Component         log P           P    phi     Initial       Final       Delta

CO2(g)            -1.86   1.388e-02  1.000   4.088e-05   5.975e-05   1.888e-05
H2O(g)            -1.91   1.229e-02  1.000   0.000e+00   5.292e-05   5.292e-05

-----------------------------Solution composition------------------------------

	Elements           Molality       Moles

	C                 7.626e-04   7.626e-04

----------------------------Description of solution----------------------------

                                       pH  =   4.795      Charge balance
                                       pe  =  14.233      Adjusted to redox equilibrium
      Specific Conductance (µS/cm,  10°C)  = 4
                          Density (g/cm³)  =   0.99966
                               Volume (L)  =   1.00037
                        Viscosity (mPa s)  =   1.30613
                        Activity of water  =   1.000
                 Ionic strength (mol/kgw)  =   1.610e-05
                       Mass of water (kg)  =   1.000e+00
                 Total alkalinity (eq/kg)  =  -8.714e-16
                       Total CO2 (mol/kg)  =   7.626e-04
                         Temperature (°C)  =  10.00
                           Pressure (atm)  =  0.03
                  Electrical balance (eq)  =   8.714e-16
 Percent error, 100*(Cat-|An|)/(Cat+|An|)  =   0.00
                               Iterations  =  19
                                  Total H  = 1.110124e+02
                                  Total O  = 5.550770e+01

----------------------------Distribution of species----------------------------

                                               Log       Log       Log    mole V
   Species          Molality    Activity  Molality  Activity     Gamma   cm³/mol

   H+              1.610e-05   1.603e-05    -4.793    -4.795    -0.002      0.00
   OH-             1.844e-10   1.835e-10    -9.734    -9.736    -0.002     -5.05
   H2O             5.551e+01   1.000e+00     1.744    -0.000     0.000     18.02
C(-4)         0.000e+00
   CH4             0.000e+00   0.000e+00  -128.863  -128.863     0.000     33.98
C(4)          7.626e-04
   CO2             7.465e-04   7.465e-04    -3.127    -3.127     0.000     34.06
   HCO3-           1.610e-05   1.603e-05    -4.793    -4.795    -0.002     22.93
   (CO2)2          3.799e-09   3.799e-09    -8.420    -8.420     0.000     67.29
   CO3-2           3.312e-11   3.252e-11   -10.480   -10.488    -0.008     -6.83
H(0)          0.000e+00
   H2              0.000e+00   0.000e+00   -41.138   -41.138     0.000     13.63
O(0)          8.972e-16
   O2              4.486e-16   4.486e-16   -15.348   -15.348     0.000     28.95

------------------------------Saturation indices-------------------------------

  Phase               SI** log IAP   log K(283 K,   0 atm)

  CH4(g)         -126.23   -128.86   -2.63  CH4
  CO2(g)           -1.86     -3.13   -1.27  CO2	 Pressure   0.0 atm, phi 1.000
  H2(g)           -38.08    -41.14   -3.06  H2
  H2O(g)           -1.91     -0.00    1.91  H2O	 Pressure   0.0 atm, phi 1.000
  O2(g)           -12.58    -15.35   -2.77  O2

**For a gas, SI = log10(fugacity). Fugacity = pressure * phi / 1 atm.
  For ideal gases, phi = 1.

Reaction step 11.

Using solution 1.	
Using gas phase 1.	
Using temperature 1.	

-----------------------------------Gas phase-----------------------------------

Total pressure:  0.03      atmospheres          (Peng-Robinson calculation)
    Gas volume:   1.00e-01 liters
  Molar volume:   8.88e+02 liters/mole
   P * Vm / RT:  0.99974  (Compressibility Factor Z) 

                                                        Moles in gas
                                            ----------------------------------
Component         log P           P    phi     Initial       Final       Delta

CO2(g)            -1.86   1.388e-02  1.000   4.088e-05   5.975e-05   1.888e-05
H2O(g)            -1.91   1.229e-02  1.000   0.000e+00   5.292e-05   5.292e-05

-----------------------------Solution composition------------------------------

	Elements           Molality       Moles

	C                 7.626e-04   7.626e-04

----------------------------Description of solution----------------------------

                                       pH  =   4.795      Charge balance
                                       pe  =  14.233      Adjusted to redox equilibrium
      Specific Conductance (µS/cm,  10°C)  = 4
                          Density (g/cm³)  =   0.99966
                               Volume (L)  =   1.00037
                        Viscosity (mPa s)  =   1.30613
                        Activity of water  =   1.000
                 Ionic strength (mol/kgw)  =   1.610e-05
                       Mass of water (kg)  =   1.000e+00
                 Total alkalinity (eq/kg)  =  -8.714e-16
                       Total CO2 (mol/kg)  =   7.626e-04
                         Temperature (°C)  =  10.00
                           Pressure (atm)  =  0.03
                  Electrical balance (eq)  =   8.714e-16
 Percent error, 100*(Cat-|An|)/(Cat+|An|)  =   0.00
                               Iterations  =  19
                                  Total H  = 1.110124e+02
                                  Total O  = 5.550770e+01

----------------------------Distribution of species----------------------------

                                               Log       Log       Log    mole V
   Species          Molality    Activity  Molality  Activity     Gamma   cm³/mol

   H+              1.610e-05   1.603e-05    -4.793    -4.795    -0.002      0.00
   OH-             1.844e-10   1.835e-10    -9.734    -9.736    -0.002     -5.05
   H2O             5.551e+01   1.000e+00     1.744    -0.000     0.000     18.02
C(-4)         0.000e+00
   CH4             0.000e+00   0.000e+00  -128.863  -128.863     0.000     33.98
C(4)          7.626e-04
   CO2             7.465e-04   7.465e-04    -3.127    -3.127     0.000     34.06
   HCO3-           1.610e-05   1.603e-05    -4.793    -4.795    -0.002     22.93
   (CO2)2          3.799e-09   3.799e-09    -8.420    -8.420     0.000     67.29
   CO3-2           3.312e-11   3.252e-11   -10.480   -10.488    -0.008     -6.83
H(0)          0.000e+00
   H2              0.000e+00   0.000e+00   -41.138   -41.138     0.000     13.63
O(0)          8.972e-16
   O2              4.486e-16   4.486e-16   -15.348   -15.348     0.000     28.95

------------------------------Saturation indices-------------------------------

  Phase               SI** log IAP   log K(283 K,   0 atm)

  CH4(g)         -126.23   -128.86   -2.63  CH4
  CO2(g)           -1.86     -3.13   -1.27  CO2	 Pressure   0.0 atm, phi 1.000
  H2(g)           -38.08    -41.14   -3.06  H2
  H2O(g)           -1.91     -0.00    1.91  H2O	 Pressure   0.0 atm, phi 1.000
  O2(g)           -12.58    -15.35   -2.77  O2

**For a gas, SI = log10(fugacity). Fugacity = pressure * phi / 1 atm.
  For ideal gases, phi = 1.

Reaction step 12.

Using solution 1.	
Using gas phase 1.	
Using temperature 1.	

-----------------------------------Gas phase-----------------------------------

Total pressure:  0.03      atmospheres          (Peng-Robinson calculation)
    Gas volume:   1.00e-01 liters
  Molar volume:   8.14e+02 liters/mole
   P * Vm / RT:  0.99971  (Compressibility Factor Z) 

                                                        Moles in gas
                                            ----------------------------------
Component         log P           P    phi     Initial       Final       Delta

CO2(g)            -1.83   1.474e-02  1.000   4.088e-05   6.300e-05   2.212e-05
H2O(g)            -1.85   1.402e-02  1.000   0.000e+00   5.993e-05   5.993e-05

-----------------------------Solution composition------------------------------

	Elements           Molality       Moles

	C                 7.594e-04   7.594e-04

----------------------------Description of solution----------------------------

                                       pH  =   4.787      Charge balance
                                       pe  =  14.053      Adjusted to redox equilibrium
      Specific Conductance (µS/cm,  12°C)  = 5
                          Density (g/cm³)  =   0.99946
                               Volume (L)  =   1.00057
                        Viscosity (mPa s)  =   1.23424
                        Activity of water  =   1.000
                 Ionic strength (mol/kgw)  =   1.641e-05
                       Mass of water (kg)  =   1.000e+00
                 Total alkalinity (eq/kg)  =  -8.716e-16
                       Total CO2 (mol/kg)  =   7.594e-04
                         Temperature (°C)  =  12.00
                           Pressure (atm)  =  0.03
                  Electrical balance (eq)  =   8.716e-16
 Percent error, 100*(Cat-|An|)/(Cat+|An|)  =   0.00
                               Iterations  =  19
                                  Total H  = 1.110123e+02
                                  Total O  = 5.550769e+01

----------------------------Distribution of species----------------------------

                                               Log       Log       Log    mole V
   Species          Molality    Activity  Molality  Activity     Gamma   cm³/mol

   H+              1.641e-05   1.634e-05    -4.785    -4.787    -0.002      0.00
   OH-             2.157e-10   2.147e-10    -9.666    -9.668    -0.002     -4.88
   H2O             5.551e+01   1.000e+00     1.744    -0.000     0.000     18.03
C(-4)         0.000e+00
   CH4             0.000e+00   0.000e+00  -127.642  -127.642     0.000     34.21
C(4)          7.594e-04
   CO2             7.430e-04   7.430e-04    -3.129    -3.129     0.000     34.17
   HCO3-           1.641e-05   1.634e-05    -4.785    -4.787    -0.002     23.21
   (CO2)2          4.282e-09   4.282e-09    -8.368    -8.368     0.000     67.50
   CO3-2           3.505e-11   3.441e-11   -10.455   -10.463    -0.008     -6.46
H(0)          0.000e+00
   H2              0.000e+00   0.000e+00   -40.770   -40.770     0.000     13.85
O(0)          8.968e-16
   O2              4.484e-16   4.484e-16   -15.348   -15.348     0.000     29.18

------------------------------Saturation indices-------------------------------

  Phase               SI** log IAP   log K(285 K,   0 atm)

  CH4(g)         -124.98   -127.64   -2.66  CH4
  CO2(g)           -1.83     -3.13   -1.30  CO2	 Pressure   0.0 atm, phi 1.000
  H2(g)           -37.70    -40.77   -3.07  H2
  H2O(g)           -1.85     -0.00    1.85  H2O	 Pressure   0.0 atm, phi 1.000
  O2(g)           -12.56    -15.35   -2.78  O2

**For a gas, SI = log10(fugacity). Fugacity = pressure * phi / 1 atm.
  For ideal gases, phi = 1.

Reaction step 13.

Using solution 1.	
Using gas phase 1.	
Using temperature 1.	

-----------------------------------Gas phase-----------------------------------

Total pressure:  0.03      atmospheres          (Peng-Robinson calculation)
    Gas volume:   1.00e-01 liters
  Molar volume:   7.69e+02 liters/mole
   P * Vm / RT:  0.99969  (Compressibility Factor Z) 

                                                        Moles in gas
                                            ----------------------------------
Component         log P           P    phi     Initial       Final       Delta

CO2(g)            -1.82   1.530e-02  1.000   4.088e-05   6.513e-05   2.425e-05
H2O(g)            -1.82   1.525e-02  1.000   0.000e+00   6.491e-05   6.491e-05

-----------------------------Solution composition------------------------------

	Elements           Molality       Moles

	C                 7.572e-04   7.572e-04

----------------------------Description of solution----------------------------

                                       pH  =   4.782      Charge balance
                                       pe  =  13.937      Adjusted to redox equilibrium
      Specific Conductance (µS/cm,  13°C)  = 5
                          Density (g/cm³)  =   0.99930
                               Volume (L)  =   1.00073
                        Viscosity (mPa s)  =   1.19086
                        Activity of water  =   1.000
                 Ionic strength (mol/kgw)  =   1.661e-05
                       Mass of water (kg)  =   1.000e+00
                 Total alkalinity (eq/kg)  =  -8.715e-16
                       Total CO2 (mol/kg)  =   7.572e-04
                         Temperature (°C)  =  13.30
                           Pressure (atm)  =  0.03
                  Electrical balance (eq)  =   8.715e-16
 Percent error, 100*(Cat-|An|)/(Cat+|An|)  =   0.00
                               Iterations  =  19
                                  Total H  = 1.110123e+02
                                  Total O  = 5.550768e+01

----------------------------Distribution of species----------------------------

                                               Log       Log       Log    mole V
   Species          Molality    Activity  Molality  Activity     Gamma   cm³/mol

   H+              1.661e-05   1.653e-05    -4.780    -4.782    -0.002      0.00
   OH-             2.385e-10   2.374e-10    -9.622    -9.624    -0.002     -4.78
   H2O             5.551e+01   1.000e+00     1.744    -0.000     0.000     18.03
C(-4)         0.000e+00
   CH4             0.000e+00   0.000e+00  -126.859  -126.859     0.000     34.35
C(4)          7.572e-04
   CO2             7.406e-04   7.406e-04    -3.130    -3.130     0.000     34.23
   HCO3-           1.661e-05   1.653e-05    -4.780    -4.782    -0.002     23.37
   (CO2)2          4.617e-09   4.618e-09    -8.336    -8.336     0.000     67.63
   CO3-2           3.632e-11   3.565e-11   -10.440   -10.448    -0.008     -6.24
H(0)          0.000e+00
   H2              0.000e+00   0.000e+00   -40.534   -40.534     0.000     13.98
O(0)          8.968e-16
   O2              4.484e-16   4.484e-16   -15.348   -15.348     0.000     29.33

------------------------------Saturation indices-------------------------------

  Phase               SI** log IAP   log K(286 K,   0 atm)

  CH4(g)         -124.18   -126.86   -2.68  CH4
  CO2(g)           -1.82     -3.13   -1.32  CO2	 Pressure   0.0 atm, phi 1.000
  H2(g)           -37.46    -40.53   -3.07  H2
  H2O(g)           -1.82     -0.00    1.82  H2O	 Pressure   0.0 atm, phi 1.000
  O2(g)           -12.55    -15.35   -2.80  O2

**For a gas, SI = log10(fugacity). Fugacity = pressure * phi / 1 atm.
  For ideal gases, phi = 1.

Reaction step 14.

Using solution 1.	
Using gas phase 1.	
Using temperature 1.	

-----------------------------------Gas phase-----------------------------------

Total pressure:  0.03      atmospheres          (Peng-Robinson calculation)
    Gas volume:   1.00e-01 liters
  Molar volume:   7.46e+02 liters/mole
   P * Vm / RT:  0.99968  (Compressibility Factor Z) 

                                                        Moles in gas
                                            ----------------------------------
Component         log P           P    phi     Initial       Final       Delta

CO2(g)            -1.81   1.561e-02  1.000   4.088e-05   6.628e-05   2.541e-05
H2O(g)            -1.80   1.596e-02  1.000   0.000e+00   6.774e-05   6.774e-05

-----------------------------Solution composition------------------------------

	Elements           Molality       Moles

	C                 7.561e-04   7.561e-04

----------------------------Description of solution----------------------------

                                       pH  =   4.779      Charge balance
                                       pe  =  13.874      Adjusted to redox equilibrium
      Specific Conductance (µS/cm,  14°C)  = 5
                          Density (g/cm³)  =   0.99921
                               Volume (L)  =   1.00083
                        Viscosity (mPa s)  =   1.16851
                        Activity of water  =   1.000
                 Ionic strength (mol/kgw)  =   1.671e-05
                       Mass of water (kg)  =   1.000e+00
                 Total alkalinity (eq/kg)  =  -8.715e-16
                       Total CO2 (mol/kg)  =   7.561e-04
                         Temperature (°C)  =  14.00
                           Pressure (atm)  =  0.03
                  Electrical balance (eq)  =   8.715e-16
 Percent error, 100*(Cat-|An|)/(Cat+|An|)  =   0.00
                               Iterations  =  19
                                  Total H  = 1.110123e+02
                                  Total O  = 5.550768e+01

----------------------------Distribution of species----------------------------

                                               Log       Log       Log    mole V
   Species          Molality    Activity  Molality  Activity     Gamma   cm³/mol

   H+              1.671e-05   1.663e-05    -4.777    -4.779    -0.002      0.00
   OH-             2.518e-10   2.506e-10    -9.599    -9.601    -0.002     -4.73
   H2O             5.551e+01   1.000e+00     1.744    -0.000     0.000     18.03
C(-4)         0.000e+00
   CH4             0.000e+00   0.000e+00  -126.441  -126.441     0.000     34.42
C(4)          7.561e-04
   CO2             7.394e-04   7.394e-04    -3.131    -3.131     0.000     34.27
   HCO3-           1.671e-05   1.663e-05    -4.777    -4.779    -0.002     23.46
   (CO2)2          4.805e-09   4.805e-09    -8.318    -8.318     0.000     67.70
   CO3-2           3.701e-11   3.633e-11   -10.432   -10.440    -0.008     -6.12
H(0)          0.000e+00
   H2              0.000e+00   0.000e+00   -40.408   -40.408     0.000     14.05
O(0)          8.970e-16
   O2              4.485e-16   4.485e-16   -15.348   -15.348     0.000     29.40

------------------------------Saturation indices-------------------------------

  Phase               SI** log IAP   log K(287 K,   0 atm)

  CH4(g)         -123.76   -126.44   -2.68  CH4
  CO2(g)           -1.81     -3.13   -1.32  CO2	 Pressure   0.0 atm, phi 1.000
  H2(g)           -37.33    -40.41   -3.07  H2
  H2O(g)           -1.80     -0.00    1.80  H2O	 Pressure   0.0 atm, phi 1.000
  O2(g)           -12.54    -15.35   -2.80  O2

**For a gas, SI = log10(fugacity). Fugacity = pressure * phi / 1 atm.
  For ideal gases, phi = 1.

Reaction step 15.

Using solution 1.	
Using gas phase 1.	
Using temperature 1.	

-----------------------------------Gas phase-----------------------------------

Total pressure:  0.03      atmospheres          (Peng-Robinson calculation)
    Gas volume:   1.00e-01 liters
  Molar volume:   7.18e+02 liters/mole
   P * Vm / RT:  0.99967  (Compressibility Factor Z) 

                                                        Moles in gas
                                            ----------------------------------
Component         log P           P    phi     Initial       Final       Delta

CO2(g)            -1.80   1.602e-02  1.000   4.088e-05   6.778e-05   2.690e-05
H2O(g)            -1.77   1.690e-02  0.999   0.000e+00   7.154e-05   7.154e-05

-----------------------------Solution composition------------------------------

	Elements           Molality       Moles

	C                 7.546e-04   7.546e-04

----------------------------Description of solution----------------------------

                                       pH  =   4.776      Charge balance
                                       pe  =  13.795      Adjusted to redox equilibrium
      Specific Conductance (µS/cm,  15°C)  = 5
                          Density (g/cm³)  =   0.99908
                               Volume (L)  =   1.00096
                        Viscosity (mPa s)  =   1.14075
                        Activity of water  =   1.000
                 Ionic strength (mol/kgw)  =   1.683e-05
                       Mass of water (kg)  =   1.000e+00
                 Total alkalinity (eq/kg)  =  -8.715e-16
                       Total CO2 (mol/kg)  =   7.546e-04
                         Temperature (°C)  =  14.90
                           Pressure (atm)  =  0.03
                  Electrical balance (eq)  =   8.715e-16
 Percent error, 100*(Cat-|An|)/(Cat+|An|)  =   0.00
                               Iterations  =  19
                                  Total H  = 1.110123e+02
                                  Total O  = 5.550767e+01

----------------------------Distribution of species----------------------------

                                               Log       Log       Log    mole V
   Species          Molality    Activity  Molality  Activity     Gamma   cm³/mol

   H+              1.683e-05   1.676e-05    -4.774    -4.776    -0.002      0.00
   OH-             2.697e-10   2.685e-10    -9.569    -9.571    -0.002     -4.66
   H2O             5.551e+01   1.000e+00     1.744    -0.000     0.000     18.03
C(-4)         0.000e+00
   CH4             0.000e+00   0.000e+00  -125.907  -125.907     0.000     34.51
C(4)          7.546e-04
   CO2             7.378e-04   7.378e-04    -3.132    -3.132     0.000     34.31
   HCO3-           1.683e-05   1.675e-05    -4.774    -4.776    -0.002     23.57
   (CO2)2          5.054e-09   5.054e-09    -8.296    -8.296     0.000     67.79
   CO3-2           3.790e-11   3.719e-11   -10.421   -10.430    -0.008     -5.98
H(0)          0.000e+00
   H2              0.000e+00   0.000e+00   -40.246   -40.246     0.000     14.14
O(0)          8.970e-16
   O2              4.485e-16   4.485e-16   -15.348   -15.348     0.000     29.50

------------------------------Saturation indices-------------------------------

  Phase               SI** log IAP   log K(288 K,   0 atm)

  CH4(g)         -123.21   -125.91   -2.69  CH4
  CO2(g)           -1.80     -3.13   -1.34  CO2	 Pressure   0.0 atm, phi 1.000
  H2(g)           -37.17    -40.25   -3.08  H2
  H2O(g)           -1.77     -0.00    1.77  H2O	 Pressure   0.0 atm, phi 0.999
  O2(g)           -12.54    -15.35   -2.81  O2

**For a gas, SI = log10(fugacity). Fugacity = pressure * phi / 1 atm.
  For ideal gases, phi = 1.

Reaction step 16.

Using solution 1.	
Using gas phase 1.	
Using temperature 1.	

-----------------------------------Gas phase-----------------------------------

Total pressure:  0.03      atmospheres          (Peng-Robinson calculation)
    Gas volume:   1.00e-01 liters
  Molar volume:   7.15e+02 liters/mole
   P * Vm / RT:  0.99967  (Compressibility Factor Z) 

                                                        Moles in gas
                                            ----------------------------------
Component         log P           P    phi     Initial       Final       Delta

CO2(g)            -1.79   1.606e-02  1.000   4.088e-05   6.794e-05   2.707e-05
H2O(g)            -1.77   1.701e-02  0.999   0.000e+00   7.197e-05   7.197e-05

-----------------------------Solution composition------------------------------

	Elements           Molality       Moles

	C                 7.544e-04   7.544e-04

----------------------------Description of solution----------------------------

                                       pH  =   4.775      Charge balance
                                       pe  =  13.786      Adjusted to redox equilibrium
      Specific Conductance (µS/cm,  15°C)  = 5
                          Density (g/cm³)  =   0.99906
                               Volume (L)  =   1.00097
                        Viscosity (mPa s)  =   1.13773
                        Activity of water  =   1.000
                 Ionic strength (mol/kgw)  =   1.685e-05
                       Mass of water (kg)  =   1.000e+00
                 Total alkalinity (eq/kg)  =  -8.715e-16
                       Total CO2 (mol/kg)  =   7.544e-04
                         Temperature (°C)  =  15.00
                           Pressure (atm)  =  0.03
                  Electrical balance (eq)  =   8.715e-16
 Percent error, 100*(Cat-|An|)/(Cat+|An|)  =   0.00
                               Iterations  =  19
                                  Total H  = 1.110123e+02
                                  Total O  = 5.550767e+01

----------------------------Distribution of species----------------------------

                                               Log       Log       Log    mole V
   Species          Molality    Activity  Molality  Activity     Gamma   cm³/mol

   H+              1.685e-05   1.677e-05    -4.773    -4.775    -0.002      0.00
   OH-             2.718e-10   2.705e-10    -9.566    -9.568    -0.002     -4.66
   H2O             5.551e+01   1.000e+00     1.744    -0.000     0.000     18.03
C(-4)         0.000e+00
   CH4             0.000e+00   0.000e+00  -125.848  -125.848     0.000     34.52
C(4)          7.544e-04
   CO2             7.376e-04   7.376e-04    -3.132    -3.132     0.000     34.32
   HCO3-           1.685e-05   1.677e-05    -4.773    -4.776    -0.002     23.58
   (CO2)2          5.082e-09   5.082e-09    -8.294    -8.294     0.000     67.80
   CO3-2           3.800e-11   3.729e-11   -10.420   -10.428    -0.008     -5.97
H(0)          0.000e+00
   H2              0.000e+00   0.000e+00   -40.228   -40.228     0.000     14.15
O(0)          8.972e-16
   O2              4.486e-16   4.486e-16   -15.348   -15.348     0.000     29.51

------------------------------Saturation indices-------------------------------

  Phase               SI** log IAP   log K(288 K,   0 atm)

  CH4(g)         -123.15   -125.85   -2.70  CH4
  CO2(g)           -1.79     -3.13   -1.34  CO2	 Pressure   0.0 atm, phi 1.000
  H2(g)           -37.15    -40.23   -3.08  H2
  H2O(g)           -1.77     -0.00    1.77  H2O	 Pressure   0.0 atm, phi 0.999
  O2(g)           -12.54    -15.35   -2.81  O2

**For a gas, SI = log10(fugacity). Fugacity = pressure * phi / 1 atm.
  For ideal gases, phi = 1.

Reaction step 17.

Using solution 1.	
Using gas phase 1.	
Using temperature 1.	

-----------------------------------Gas phase-----------------------------------

Total pressure:  0.03      atmospheres          (Peng-Robinson calculation)
    Gas volume:   1.00e-01 liters
  Molar volume:   7.15e+02 liters/mole
   P * Vm / RT:  0.99967  (Compressibility Factor Z) 

                                                        Moles in gas
                                            ----------------------------------
Component         log P           P    phi     Initial       Final       Delta

CO2(g)            -1.79   1.606e-02  1.000   4.088e-05   6.794e-05   2.707e-05
H2O(g)            -1.77   1.701e-02  0.999   0.000e+00   7.197e-05   7.197e-05

-----------------------------Solution composition------------------------------

	Elements           Molality       Moles

	C                 7.544e-04   7.544e-04

----------------------------Description of solution----------------------------

                                       pH  =   4.775      Charge balance
                                       pe  =  13.786      Adjusted to redox equilibrium
      Specific Conductance (µS/cm,  15°C)  = 5
                          Density (g/cm³)  =   0.99906
                               Volume (L)  =   1.00097
                        Viscosity (mPa s)  =   1.13773
                        Activity of water  =   1.000
                 Ionic strength (mol/kgw)  =   1.685e-05
                       Mass of water (kg)  =   1.000e+00
                 Total alkalinity (eq/kg)  =  -8.714e-16
                       Total CO2 (mol/kg)  =   7.544e-04
                         Temperature (°C)  =  15.00
                           Pressure (atm)  =  0.03
                  Electrical balance (eq)  =   8.714e-16
 Percent error, 100*(Cat-|An|)/(Cat+|An|)  =   0.00
                               Iterations  =  19
                                  Total H  = 1.110123e+02
                                  Total O  = 5.550767e+01

----------------------------Distribution of species----------------------------

                                               Log       Log       Log    mole V
   Species          Molality    Activity  Molality  Activity     Gamma   cm³/mol

   H+              1.685e-05   1.677e-05    -4.773    -4.775    -0.002      0.00
   OH-             2.718e-10   2.705e-10    -9.566    -9.568    -0.002     -4.66
   H2O             5.551e+01   1.000e+00     1.744    -0.000     0.000     18.03
C(-4)         0.000e+00
   CH4             0.000e+00   0.000e+00  -125.848  -125.848     0.000     34.52
C(4)          7.544e-04
   CO2             7.376e-04   7.376e-04    -3.132    -3.132     0.000     34.32
   HCO3-           1.685e-05   1.677e-05    -4.773    -4.776    -0.002     23.58
   (CO2)2          5.082e-09   5.082e-09    -8.294    -8.294     0.000     67.80
   CO3-2           3.800e-11   3.729e-11   -10.420   -10.428    -0.008     -5.97
H(0)          0.000e+00
   H2              0.000e+00   0.000e+00   -40.228   -40.228     0.000     14.15
O(0)          8.971e-16
   O2              4.486e-16   4.486e-16   -15.348   -15.348     0.000     29.51

------------------------------Saturation indices-------------------------------

  Phase               SI** log IAP   log K(288 K,   0 atm)

  CH4(g)         -123.15   -125.85   -2.70  CH4
  CO2(g)           -1.79     -3.13   -1.34  CO2	 Pressure   0.0 atm, phi 1.000
  H2(g)           -37.15    -40.23   -3.08  H2
  H2O(g)           -1.77     -0.00    1.77  H2O	 Pressure   0.0 atm, phi 0.999
  O2(g)           -12.54    -15.35   -2.81  O2

**For a gas, SI = log10(fugacity). Fugacity = pressure * phi / 1 atm.
  For ideal gases, phi = 1.

Reaction step 18.

Using solution 1.	
Using gas phase 1.	
Using temperature 1.	

-----------------------------------Gas phase-----------------------------------

Total pressure:  0.03      atmospheres          (Peng-Robinson calculation)
    Gas volume:   1.00e-01 liters
  Molar volume:   6.85e+02 liters/mole
   P * Vm / RT:  0.99965  (Compressibility Factor Z) 

                                                        Moles in gas
                                            ----------------------------------
Component         log P           P    phi     Initial       Final       Delta

CO2(g)            -1.78   1.651e-02  1.000   4.088e-05   6.961e-05   2.874e-05
H2O(g)            -1.74   1.813e-02  0.999   0.000e+00   7.643e-05   7.643e-05

-----------------------------Solution composition------------------------------

	Elements           Molality       Moles

	C                 7.528e-04   7.528e-04

----------------------------Description of solution----------------------------

                                       pH  =   4.772      Charge balance
                                       pe  =  13.698      Adjusted to redox equilibrium
      Specific Conductance (µS/cm,  16°C)  = 5
                          Density (g/cm³)  =   0.99890
                               Volume (L)  =   1.00113
                        Viscosity (mPa s)  =   1.10823
                        Activity of water  =   1.000
                 Ionic strength (mol/kgw)  =   1.698e-05
                       Mass of water (kg)  =   1.000e+00
                 Total alkalinity (eq/kg)  =  -8.715e-16
                       Total CO2 (mol/kg)  =   7.528e-04
                         Temperature (°C)  =  16.00
                           Pressure (atm)  =  0.03
                  Electrical balance (eq)  =   8.715e-16
 Percent error, 100*(Cat-|An|)/(Cat+|An|)  =   0.00
                               Iterations  =  19
                                  Total H  = 1.110123e+02
                                  Total O  = 5.550766e+01

----------------------------Distribution of species----------------------------

                                               Log       Log       Log    mole V
   Species          Molality    Activity  Molality  Activity     Gamma   cm³/mol

   H+              1.698e-05   1.690e-05    -4.770    -4.772    -0.002      0.00
   OH-             2.933e-10   2.919e-10    -9.533    -9.535    -0.002     -4.59
   H2O             5.551e+01   1.000e+00     1.744    -0.000     0.000     18.04
C(-4)         0.000e+00
   CH4             0.000e+00   0.000e+00  -125.260  -125.260     0.000     34.63
C(4)          7.528e-04
   CO2             7.358e-04   7.358e-04    -3.133    -3.133     0.000     34.37
   HCO3-           1.698e-05   1.690e-05    -4.770    -4.772    -0.002     23.69
   (CO2)2          5.369e-09   5.369e-09    -8.270    -8.270     0.000     67.90
   CO3-2           3.898e-11   3.825e-11   -10.409   -10.417    -0.008     -5.82
H(0)          0.000e+00
   H2              0.000e+00   0.000e+00   -40.050   -40.050     0.000     14.25
O(0)          8.969e-16
   O2              4.485e-16   4.485e-16   -15.348   -15.348     0.000     29.61

------------------------------Saturation indices-------------------------------

  Phase               SI** log IAP   log K(289 K,   0 atm)

  CH4(g)         -122.55   -125.26   -2.71  CH4
  CO2(g)           -1.78     -3.13   -1.35  CO2	 Pressure   0.0 atm, phi 1.000
  H2(g)           -36.97    -40.05   -3.08  H2
  H2O(g)           -1.74     -0.00    1.74  H2O	 Pressure   0.0 atm, phi 0.999
  O2(g)           -12.53    -15.35   -2.82  O2

**For a gas, SI = log10(fugacity). Fugacity = pressure * phi / 1 atm.
  For ideal gases, phi = 1.

Reaction step 19.

Using solution 1.	
Using gas phase 1.	
Using temperature 1.	

-----------------------------------Gas phase-----------------------------------

Total pressure:  0.04      atmospheres          (Peng-Robinson calculation)
    Gas volume:   1.00e-01 liters
  Molar volume:   6.40e+02 liters/mole
   P * Vm / RT:  0.99963  (Compressibility Factor Z) 

                                                        Moles in gas
                                            ----------------------------------
Component         log P           P    phi     Initial       Final       Delta

CO2(g)            -1.76   1.724e-02  1.000   4.088e-05   7.230e-05   3.142e-05
H2O(g)            -1.70   2.005e-02  0.999   0.000e+00   8.406e-05   8.406e-05

-----------------------------Solution composition------------------------------

	Elements           Molality       Moles

	C                 7.501e-04   7.501e-04

----------------------------Description of solution----------------------------

                                       pH  =   4.767      Charge balance
                                       pe  =  13.559      Adjusted to redox equilibrium
      Specific Conductance (µS/cm,  18°C)  = 6
                          Density (g/cm³)  =   0.99863
                               Volume (L)  =   1.00140
                        Viscosity (mPa s)  =   1.06353
                        Activity of water  =   1.000
                 Ionic strength (mol/kgw)  =   1.719e-05
                       Mass of water (kg)  =   1.000e+00
                 Total alkalinity (eq/kg)  =  -8.716e-16
                       Total CO2 (mol/kg)  =   7.501e-04
                         Temperature (°C)  =  17.60
                           Pressure (atm)  =  0.04
                  Electrical balance (eq)  =   8.716e-16
 Percent error, 100*(Cat-|An|)/(Cat+|An|)  =   0.00
                               Iterations  =  20
                                  Total H  = 1.110123e+02
                                  Total O  = 5.550765e+01

----------------------------Distribution of species----------------------------

                                               Log       Log       Log    mole V
   Species          Molality    Activity  Molality  Activity     Gamma   cm³/mol

   H+              1.719e-05   1.711e-05    -4.765    -4.767    -0.002      0.00
   OH-             3.309e-10   3.293e-10    -9.480    -9.482    -0.002     -4.49
   H2O             5.551e+01   1.000e+00     1.744    -0.000     0.000     18.04
C(-4)         0.000e+00
   CH4             0.000e+00   0.000e+00  -124.329  -124.329     0.000     34.78
C(4)          7.501e-04
   CO2             7.329e-04   7.329e-04    -3.135    -3.135     0.000     34.44
   HCO3-           1.719e-05   1.711e-05    -4.765    -4.767    -0.002     23.86
   (CO2)2          5.850e-09   5.850e-09    -8.233    -8.233     0.000     68.05
   CO3-2           4.056e-11   3.980e-11   -10.392   -10.400    -0.008     -5.60
H(0)          3.408e-40
   H2              1.704e-40   1.704e-40   -39.768   -39.768     0.000     14.39
O(0)          8.968e-16
   O2              4.484e-16   4.484e-16   -15.348   -15.348     0.000     29.76

------------------------------Saturation indices-------------------------------

  Phase               SI** log IAP   log K(290 K,   0 atm)

  CH4(g)         -121.60   -124.33   -2.73  CH4
  CO2(g)           -1.76     -3.13   -1.37  CO2	 Pressure   0.0 atm, phi 1.000
  H2(g)           -36.69    -39.77   -3.08  H2
  H2O(g)           -1.70     -0.00    1.70  H2O	 Pressure   0.0 atm, phi 0.999
  O2(g)           -12.51    -15.35   -2.83  O2

**For a gas, SI = log10(fugacity). Fugacity = pressure * phi / 1 atm.
  For ideal gases, phi = 1.

Reaction step 20.

Using solution 1.	
Using gas phase 1.	
Using temperature 1.	

-----------------------------------Gas phase-----------------------------------

Total pressure:  0.04      atmospheres          (Peng-Robinson calculation)
    Gas volume:   1.00e-01 liters
  Molar volume:   6.29e+02 liters/mole
   P * Vm / RT:  0.99962  (Compressibility Factor Z) 

                                                        Moles in gas
                                            ----------------------------------
Component         log P           P    phi     Initial       Final       Delta

CO2(g)            -1.76   1.743e-02  1.000   4.088e-05   7.297e-05   3.210e-05
H2O(g)            -1.69   2.055e-02  0.999   0.000e+00   8.606e-05   8.606e-05

-----------------------------Solution composition------------------------------

	Elements           Molality       Moles

	C                 7.494e-04   7.494e-04

----------------------------Description of solution----------------------------

                                       pH  =   4.766      Charge balance
                                       pe  =  13.524      Adjusted to redox equilibrium
      Specific Conductance (µS/cm,  18°C)  = 6
                          Density (g/cm³)  =   0.99856
                               Volume (L)  =   1.00148
                        Viscosity (mPa s)  =   1.05280
                        Activity of water  =   1.000
                 Ionic strength (mol/kgw)  =   1.724e-05
                       Mass of water (kg)  =   1.000e+00
                 Total alkalinity (eq/kg)  =  -8.715e-16
                       Total CO2 (mol/kg)  =   7.494e-04
                         Temperature (°C)  =  18.00
                           Pressure (atm)  =  0.04
                  Electrical balance (eq)  =   8.715e-16
 Percent error, 100*(Cat-|An|)/(Cat+|An|)  =   0.00
                               Iterations  =  20
                                  Total H  = 1.110123e+02
                                  Total O  = 5.550764e+01

----------------------------Distribution of species----------------------------

                                               Log       Log       Log    mole V
   Species          Molality    Activity  Molality  Activity     Gamma   cm³/mol

   H+              1.724e-05   1.716e-05    -4.764    -4.766    -0.002      0.00
   OH-             3.409e-10   3.393e-10    -9.467    -9.469    -0.002     -4.47
   H2O             5.551e+01   1.000e+00     1.744    -0.000     0.000     18.04
C(-4)         0.000e+00
   CH4             0.000e+00   0.000e+00  -124.099  -124.099     0.000     34.82
C(4)          7.494e-04
   CO2             7.322e-04   7.322e-04    -3.135    -3.135     0.000     34.46
   HCO3-           1.724e-05   1.716e-05    -4.764    -4.766    -0.002     23.90
   (CO2)2          5.975e-09   5.975e-09    -8.224    -8.224     0.000     68.09
[...]
  O2(g)           -12.96    -15.35   -2.38  O2

**For a gas, SI = log10(fugacity). Fugacity = pressure * phi / 1 atm.
  For ideal gases, phi = 1.

Reaction step 79.

Using solution 1.	
Using gas phase 1.	
Using temperature 1.	

-----------------------------------Gas phase-----------------------------------

Total pressure: 95.65      atmospheres          (Peng-Robinson calculation)
    Gas volume:   1.00e-01 liters
  Molar volume:   3.55e-01 liters/mole
   P * Vm / RT:  0.71100  (Compressibility Factor Z) 

                                                        Moles in gas
                                            ----------------------------------
Component         log P           P    phi     Initial       Final       Delta

CO2(g)            -1.24   5.713e-02  1.181   4.088e-05   1.682e-04   1.273e-04
H2O(g)             1.98   9.559e+01  0.774   0.000e+00   2.814e-01   2.814e-01

-----------------------------Solution composition------------------------------

	Elements           Molality       Moles

	C                 6.575e-04   6.542e-04

----------------------------Description of solution----------------------------

                                       pH  =   5.503      Charge balance
                                       pe  =   3.525      Adjusted to redox equilibrium
      Specific Conductance (µS/cm, 309°C)  = 2
                          Density (g/cm³)  =   0.69305
                               Volume (L)  =   1.43563
                        Viscosity (mPa s)  =   0.08250 (solute contributions limited to 200 °C)
                        Activity of water  =   1.000
                 Ionic strength (mol/kgw)  =   3.158e-06
                       Mass of water (kg)  =   9.949e-01
                 Total alkalinity (eq/kg)  =  -3.115e-16
                       Total CO2 (mol/kg)  =   6.575e-04
                         Temperature (°C)  = 309.00
                           Pressure (atm)  = 95.65
                  Electrical balance (eq)  =   3.099e-16
 Percent error, 100*(Cat-|An|)/(Cat+|An|)  =   0.00
                               Iterations  =  86
                                  Total H  = 1.104496e+02
                                  Total O  = 5.522610e+01

----------------------------Distribution of species----------------------------

                                               Log       Log       Log    mole V
   Species          Molality    Activity  Molality  Activity     Gamma   cm³/mol

   H+              3.158e-06   3.141e-06    -5.501    -5.503    -0.002      0.00
   OH-             1.722e-06   1.712e-06    -5.764    -5.766    -0.002   -228.83
   H2O             5.551e+01   1.000e+00     1.744    -0.000     0.000     25.99
C(-4)         0.000e+00
   CH4             0.000e+00   0.000e+00   -76.748   -76.748     0.000    219.42
C(4)          6.575e-04
   CO2             6.561e-04   6.561e-04    -3.183    -3.183     0.000    225.40
   HCO3-           1.436e-06   1.429e-06    -5.843    -5.845    -0.002   -183.27
   (CO2)2          5.358e-11   5.358e-11   -10.271   -10.271     0.000    449.96
   CO3-2           8.000e-13   7.830e-13   -12.097   -12.106    -0.009   -465.16
H(0)          2.562e-22
   H2              1.281e-22   1.281e-22   -21.892   -21.892     0.000     66.71
O(0)          9.013e-16
   O2              4.507e-16   4.507e-16   -15.346   -15.346     0.000     81.56

------------------------------Saturation indices-------------------------------

  Phase               SI** log IAP   log K(582 K,  96 atm)

  CH4(g)          -74.08    -76.75   -2.67  CH4
  CO2(g)           -1.17     -3.18   -2.01  CO2	 Pressure   0.1 atm, phi 1.181
  H2(g)           -19.65    -21.89   -2.24  H2
  H2O(g)            1.87     -0.00   -1.87  H2O	 Pressure  95.6 atm, phi 0.774
  O2(g)           -12.96    -15.35   -2.38  O2

**For a gas, SI = log10(fugacity). Fugacity = pressure * phi / 1 atm.
  For ideal gases, phi = 1.

Reaction step 80.

Using solution 1.	
Using gas phase 1.	
Using temperature 1.	

-----------------------------------Gas phase-----------------------------------

Total pressure: 95.65      atmospheres          (Peng-Robinson calculation)
    Gas volume:   1.00e-01 liters
  Molar volume:   3.55e-01 liters/mole
   P * Vm / RT:  0.71100  (Compressibility Factor Z) 

                                                        Moles in gas
                                            ----------------------------------
Component         log P           P    phi     Initial       Final       Delta

CO2(g)            -1.24   5.713e-02  1.181   4.088e-05   1.682e-04   1.273e-04
H2O(g)             1.98   9.559e+01  0.774   0.000e+00   2.814e-01   2.814e-01

-----------------------------Solution composition------------------------------

	Elements           Molality       Moles

	C                 6.575e-04   6.542e-04

----------------------------Description of solution----------------------------

                                       pH  =   5.503      Charge balance
                                       pe  =   3.525      Adjusted to redox equilibrium
      Specific Conductance (µS/cm, 309°C)  = 2
                          Density (g/cm³)  =   0.69305
                               Volume (L)  =   1.43563
                        Viscosity (mPa s)  =   0.08250 (solute contributions limited to 200 °C)
                        Activity of water  =   1.000
                 Ionic strength (mol/kgw)  =   3.158e-06
                       Mass of water (kg)  =   9.949e-01
                 Total alkalinity (eq/kg)  =  -3.115e-16
                       Total CO2 (mol/kg)  =   6.575e-04
                         Temperature (°C)  = 309.00
                           Pressure (atm)  = 95.65
                  Electrical balance (eq)  =   3.099e-16
 Percent error, 100*(Cat-|An|)/(Cat+|An|)  =   0.00
                               Iterations  =  86
                                  Total H  = 1.104496e+02
                                  Total O  = 5.522610e+01

----------------------------Distribution of species----------------------------

                                               Log       Log       Log    mole V
   Species          Molality    Activity  Molality  Activity     Gamma   cm³/mol

   H+              3.158e-06   3.141e-06    -5.501    -5.503    -0.002      0.00
   OH-             1.722e-06   1.712e-06    -5.764    -5.766    -0.002   -228.83
   H2O             5.551e+01   1.000e+00     1.744    -0.000     0.000     25.99
C(-4)         0.000e+00
   CH4             0.000e+00   0.000e+00   -76.748   -76.748     0.000    219.42
C(4)          6.575e-04
   CO2             6.561e-04   6.561e-04    -3.183    -3.183     0.000    225.40
   HCO3-           1.436e-06   1.429e-06    -5.843    -5.845    -0.002   -183.27
   (CO2)2          5.358e-11   5.358e-11   -10.271   -10.271     0.000    449.96
   CO3-2           8.000e-13   7.830e-13   -12.097   -12.106    -0.009   -465.16
H(0)          2.562e-22
   H2              1.281e-22   1.281e-22   -21.892   -21.892     0.000     66.71
O(0)          9.013e-16
   O2              4.507e-16   4.507e-16   -15.346   -15.346     0.000     81.56

------------------------------Saturation indices-------------------------------

  Phase               SI** log IAP   log K(582 K,  96 atm)

  CH4(g)          -74.08    -76.75   -2.67  CH4
  CO2(g)           -1.17     -3.18   -2.01  CO2	 Pressure   0.1 atm, phi 1.181
  H2(g)           -19.65    -21.89   -2.24  H2
  H2O(g)            1.87     -0.00   -1.87  H2O	 Pressure  95.6 atm, phi 0.774
  O2(g)           -12.96    -15.35   -2.38  O2

**For a gas, SI = log10(fugacity). Fugacity = pressure * phi / 1 atm.
  For ideal gases, phi = 1.

Reaction step 81.

WARNING: Numerical method failed, switching to numerical derivatives.
WARNING: Maximum iterations exceeded, 100

WARNING: Numerical method failed with this set of convergence parameters.

WARNING: Trying smaller step size, pe step size 10, 5 ... 

Using solution 1.	
Using gas phase 1.	
Using temperature 1.	

-----------------------------------Gas phase-----------------------------------

Total pressure: 118.60      atmospheres          (Peng-Robinson calculation)
    Gas volume:   1.00e-01 liters
  Molar volume:   2.72e-01 liters/mole
   P * Vm / RT:  0.65699  (Compressibility Factor Z) 

                                                        Moles in gas
                                            ----------------------------------
Component         log P           P    phi     Initial       Final       Delta

CO2(g)            -1.19   6.505e-02  1.259   4.088e-05   2.017e-04   1.609e-04
H2O(g)             2.07   1.185e+02  0.744   0.000e+00   3.676e-01   3.676e-01

-----------------------------Solution composition------------------------------

	Elements           Molality       Moles

	C                 6.248e-04   6.206e-04

----------------------------Description of solution----------------------------

                                       pH  =   5.461      Charge balance
                                       pe  =   3.658      Adjusted to redox equilibrium
      Specific Conductance (µS/cm, 325°C)  = 2
                          Density (g/cm³)  =   0.65440
                               Volume (L)  =   1.51804
                        Viscosity (mPa s)  =   0.07641 (solute contributions limited to 200 °C)
                        Activity of water  =   1.000
                 Ionic strength (mol/kgw)  =   3.483e-06
                       Mass of water (kg)  =   9.934e-01
                 Total alkalinity (eq/kg)  =  -2.583e-14
                       Total CO2 (mol/kg)  =   6.248e-04
                         Temperature (°C)  = 325.00
                           Pressure (atm)  = 118.60
                  Electrical balance (eq)  =   2.566e-14
 Percent error, 100*(Cat-|An|)/(Cat+|An|)  =   0.00
                               Iterations  =  44 (145 overall)
                                  Total H  = 1.102773e+02
                                  Total O  = 5.513989e+01

----------------------------Distribution of species----------------------------

                                               Log       Log       Log    mole V
   Species          Molality    Activity  Molality  Activity     Gamma   cm³/mol

   H+              3.483e-06   3.462e-06    -5.458    -5.461    -0.003      0.00
   OH-             1.870e-06   1.858e-06    -5.728    -5.731    -0.003   -368.27
   H2O             5.551e+01   1.000e+00     1.744    -0.000     0.000     27.53
C(-4)         0.000e+00
   CH4             0.000e+00   0.000e+00   -78.544   -78.544     0.000    330.00
C(4)          6.248e-04
   CO2             6.232e-04   6.232e-04    -3.205    -3.205     0.000    341.44
   HCO3-           1.614e-06   1.603e-06    -5.792    -5.795    -0.003   -314.02
   (CO2)2          2.077e-11   2.077e-11   -10.683   -10.683     0.000    682.04
   CO3-2           8.223e-13   8.018e-13   -12.085   -12.096    -0.011   -752.26
H(0)          1.472e-22
   H2              7.359e-23   7.359e-23   -22.133   -22.133     0.000     96.18
O(0)          9.028e-16
   O2              4.514e-16   4.514e-16   -15.345   -15.345     0.000    110.58

------------------------------Saturation indices-------------------------------

  Phase               SI** log IAP   log K(598 K, 119 atm)

  CH4(g)          -75.75    -78.54   -2.79  CH4
  CO2(g)           -1.09     -3.21   -2.12  CO2	 Pressure   0.1 atm, phi 1.259
  H2(g)           -19.94    -22.13   -2.19  H2
  H2O(g)            1.95     -0.00   -1.95  H2O	 Pressure 118.5 atm, phi 0.744
  O2(g)           -13.01    -15.35   -2.33  O2

**For a gas, SI = log10(fugacity). Fugacity = pressure * phi / 1 atm.
  For ideal gases, phi = 1.

Reaction step 82.

WARNING: Numerical method failed, switching to numerical derivatives.
WARNING: Maximum iterations exceeded, 100

WARNING: Numerical method failed with this set of convergence parameters.

WARNING: Trying smaller step size, pe step size 10, 5 ... 

Using solution 1.	
Using gas phase 1.	
Using temperature 1.	

-----------------------------------Gas phase-----------------------------------

Total pressure: 133.59      atmospheres          (Peng-Robinson calculation)
    Gas volume:   1.00e-01 liters
  Molar volume:   2.32e-01 liters/mole
   P * Vm / RT:  0.62086  (Compressibility Factor Z) 

                                                        Moles in gas
                                            ----------------------------------
Component         log P           P    phi     Initial       Final       Delta

CO2(g)            -1.11   7.788e-02  1.323   4.088e-05   2.518e-04   2.109e-04
H2O(g)             2.13   1.335e+02  0.726   0.000e+00   4.316e-01   4.316e-01

-----------------------------Solution composition------------------------------

	Elements           Molality       Moles

	C                 5.751e-04   5.706e-04

----------------------------Description of solution----------------------------

                                       pH  =   5.382      Charge balance
                                       pe  =   3.809      Adjusted to redox equilibrium
      Specific Conductance (µS/cm, 334°C)  = 3
                          Density (g/cm³)  =   0.62923
                               Volume (L)  =   1.57693
                        Viscosity (mPa s)  =   0.07283 (solute contributions limited to 200 °C)
                        Activity of water  =   1.000
                 Ionic strength (mol/kgw)  =   4.184e-06
                       Mass of water (kg)  =   9.922e-01
                 Total alkalinity (eq/kg)  =  -2.551e-14
                       Total CO2 (mol/kg)  =   5.751e-04
                         Temperature (°C)  = 334.00
                           Pressure (atm)  = 133.59
                  Electrical balance (eq)  =   2.532e-14
 Percent error, 100*(Cat-|An|)/(Cat+|An|)  =   0.00
                               Iterations  =  43 (144 overall)
                                  Total H  = 1.101492e+02
                                  Total O  = 5.507576e+01

----------------------------Distribution of species----------------------------

                                               Log       Log       Log    mole V
   Species          Molality    Activity  Molality  Activity     Gamma   cm³/mol

   H+              4.184e-06   4.153e-06    -5.378    -5.382    -0.003      0.00
   OH-             2.094e-06   2.079e-06    -5.679    -5.682    -0.003   -502.92
   H2O             5.551e+01   1.000e+00     1.744    -0.000     0.000     28.63
C(-4)         0.000e+00
   CH4             0.000e+00   0.000e+00   -79.740   -79.740     0.000    436.83
C(4)          5.751e-04
   CO2             5.730e-04   5.730e-04    -3.242    -3.242     0.000    453.58
   HCO3-           2.090e-06   2.074e-06    -5.680    -5.683    -0.003   -440.39
   (CO2)2          1.077e-11   1.077e-11   -10.968   -10.968     0.000    906.33
   CO3-2           1.130e-12   1.097e-12   -11.947   -11.960    -0.013  -1029.69
H(0)          9.328e-23
   H2              4.664e-23   4.664e-23   -22.331   -22.331     0.000    124.66
O(0)          9.038e-16
   O2              4.519e-16   4.519e-16   -15.345   -15.345     0.000    138.63

------------------------------Saturation indices-------------------------------

  Phase               SI** log IAP   log K(607 K, 134 atm)

  CH4(g)          -76.80    -79.74   -2.94  CH4
  CO2(g)           -0.99     -3.24   -2.25  CO2	 Pressure   0.1 atm, phi 1.323
  H2(g)           -20.15    -22.33   -2.18  H2
  H2O(g)            1.99     -0.00   -1.99  H2O	 Pressure 133.5 atm, phi 0.726
  O2(g)           -13.02    -15.34   -2.32  O2

**For a gas, SI = log10(fugacity). Fugacity = pressure * phi / 1 atm.
  For ideal gases, phi = 1.

Reaction step 83.

WARNING: Numerical method failed, switching to numerical derivatives.
WARNING: Maximum iterations exceeded, 100

WARNING: Numerical method failed with this set of convergence parameters.

WARNING: Trying smaller step size, pe step size 10, 5 ... 

Using solution 1.	
Using gas phase 1.	
Using temperature 1.	

-----------------------------------Gas phase-----------------------------------

Total pressure: 133.59      atmospheres          (Peng-Robinson calculation)
    Gas volume:   1.00e-01 liters
  Molar volume:   2.32e-01 liters/mole
   P * Vm / RT:  0.62086  (Compressibility Factor Z) 

                                                        Moles in gas
                                            ----------------------------------
Component         log P           P    phi     Initial       Final       Delta

CO2(g)            -1.11   7.788e-02  1.323   4.088e-05   2.518e-04   2.109e-04
H2O(g)             2.13   1.335e+02  0.726   0.000e+00   4.316e-01   4.316e-01

-----------------------------Solution composition------------------------------

	Elements           Molality       Moles

	C                 5.751e-04   5.706e-04

----------------------------Description of solution----------------------------

                                       pH  =   5.382      Charge balance
                                       pe  =   3.809      Adjusted to redox equilibrium
      Specific Conductance (µS/cm, 334°C)  = 3
                          Density (g/cm³)  =   0.62923
                               Volume (L)  =   1.57693
                        Viscosity (mPa s)  =   0.07283 (solute contributions limited to 200 °C)
                        Activity of water  =   1.000
                 Ionic strength (mol/kgw)  =   4.184e-06
                       Mass of water (kg)  =   9.922e-01
                 Total alkalinity (eq/kg)  =  -2.551e-14
                       Total CO2 (mol/kg)  =   5.751e-04
                         Temperature (°C)  = 334.00
                           Pressure (atm)  = 133.59
                  Electrical balance (eq)  =   2.532e-14
 Percent error, 100*(Cat-|An|)/(Cat+|An|)  =   0.00
                               Iterations  =  43 (144 overall)
                                  Total H  = 1.101492e+02
                                  Total O  = 5.507576e+01

----------------------------Distribution of species----------------------------

                                               Log       Log       Log    mole V
   Species          Molality    Activity  Molality  Activity     Gamma   cm³/mol

   H+              4.184e-06   4.153e-06    -5.378    -5.382    -0.003      0.00
   OH-             2.094e-06   2.079e-06    -5.679    -5.682    -0.003   -502.92
   H2O             5.551e+01   1.000e+00     1.744    -0.000     0.000     28.63
C(-4)         0.000e+00
   CH4             0.000e+00   0.000e+00   -79.740   -79.740     0.000    436.83
C(4)          5.751e-04
   CO2             5.730e-04   5.730e-04    -3.242    -3.242     0.000    453.58
   HCO3-           2.090e-06   2.074e-06    -5.680    -5.683    -0.003   -440.39
   (CO2)2          1.077e-11   1.077e-11   -10.968   -10.968     0.000    906.33
   CO3-2           1.130e-12   1.097e-12   -11.947   -11.960    -0.013  -1029.69
H(0)          9.328e-23
   H2              4.664e-23   4.664e-23   -22.331   -22.331     0.000    124.66
O(0)          9.038e-16
   O2              4.519e-16   4.519e-16   -15.345   -15.345     0.000    138.63

------------------------------Saturation indices-------------------------------

  Phase               SI** log IAP   log K(607 K, 134 atm)

  CH4(g)          -76.80    -79.74   -2.94  CH4
  CO2(g)           -0.99     -3.24   -2.25  CO2	 Pressure   0.1 atm, phi 1.323
  H2(g)           -20.15    -22.33   -2.18  H2
  H2O(g)            1.99     -0.00   -1.99  H2O	 Pressure 133.5 atm, phi 0.726
  O2(g)           -13.02    -15.34   -2.32  O2

**For a gas, SI = log10(fugacity). Fugacity = pressure * phi / 1 atm.
  For ideal gases, phi = 1.

------------------
End of simulation.
------------------

------------------------------------
Reading input data for simulation 3.
------------------------------------

