WARNING: Database file from DATABASE keyword is used; command line argument ignored.
   Input file: CO2_conc_PR_IS
  Output file: CO2_conc_PR_IS.out
Database file: ../database/phreeqc.dat

------------------
Reading data base.
------------------

	SOLUTION_MASTER_SPECIES
	SOLUTION_SPECIES
	PHASES
	GAS_BINARY_PARAMETERS
	EXCHANGE_MASTER_SPECIES
	EXCHANGE_SPECIES
	SURFACE_MASTER_SPECIES
	SURFACE_SPECIES
	MEAN_GAMMAS
	RATES
	END
------------------------------------
Reading input data for simulation 1.
------------------------------------

	DATABASE ../database/phreeqc.dat
	SELECTED_OUTPUT 101
	    file                 CO2_conc_PR_IS_101.sel
	USER_PUNCH 101
	    headings Mu SC
	    start
	10 PUNCH STR_F$(MU, 20, 12)
	20 PUNCH STR_F$(SC, 20, 10)
	    end
	SOLUTION 1
	SELECTED_OUTPUT
	 reset false
	 file CO2_conc_PR_IS.sel
	USER_PUNCH
	  1 sc$ = chr$(59)
	 10 for i = 1.1 to 520 step 20
	 20   punch 'SOLUTION 1' + sc$ + ' -temp 25' + sc$ + ' pH 3 charge' + EOL$ + 'C(4) 1 CO2(g) ' + str$(log10(i)) + sc$ + '-pressure ' + str$(i) + EOL$ + 'END' + EOL$
	 30 next i
	END
-------------------------------------------
Beginning of initial solution calculations.
-------------------------------------------

Initial solution 1.	

WARNING: USER_PUNCH: Headings count does not match number of calls to PUNCH.

-----------------------------Solution composition------------------------------

	Elements           Molality       Moles

	Pure water     

----------------------------Description of solution----------------------------

                                       pH  =   7.000    
                                       pe  =   4.000    
      Specific Conductance (µS/cm,  25°C)  = 0
                          Density (g/cm³)  =   0.99704
                               Volume (L)  =   1.00297
                        Viscosity (mPa s)  =   0.89002
                        Activity of water  =   1.000
                 Ionic strength (mol/kgw)  =   1.007e-07
                       Mass of water (kg)  =   1.000e+00
                 Total alkalinity (eq/kg)  =   1.217e-09
                         Temperature (°C)  =  25.00
                  Electrical balance (eq)  =  -1.217e-09
 Percent error, 100*(Cat-|An|)/(Cat+|An|)  =  -0.60
                               Iterations  =   0
                                  Total H  = 1.110124e+02
                                  Total O  = 5.550622e+01

----------------------------Distribution of species----------------------------

                                               Log       Log       Log    mole V
   Species          Molality    Activity  Molality  Activity     Gamma   cm³/mol

   OH-             1.013e-07   1.012e-07    -6.995    -6.995    -0.000     -4.14
   H+              1.001e-07   1.000e-07    -7.000    -7.000    -0.000      0.00
   H2O             5.551e+01   1.000e+00     1.744     0.000     0.000     18.07
H(0)          1.416e-25
   H2              7.079e-26   7.079e-26   -25.150   -25.150     0.000     14.99
O(0)          0.000e+00
   O2              0.000e+00   0.000e+00   -42.063   -42.063     0.000     30.40

------------------------------Saturation indices-------------------------------

  Phase               SI** log IAP   log K(298 K,   1 atm)

  H2(g)           -22.05    -25.15   -3.10  H2
  H2O(g)           -1.50      0.00    1.50  H2O
  O2(g)           -39.17    -42.06   -2.89  O2

**For a gas, SI = log10(fugacity). Fugacity = pressure * phi / 1 atm.
  For ideal gases, phi = 1.

------------------
End of simulation.
------------------

------------------------------------
Reading input data for simulation 2.
------------------------------------

	SELECTED_OUTPUT
	 active false
	USER_GRAPH
	 -chart_title "Using: Initial Equilibrations"
	 -plot_csv_file co2.dat
	 -axis_titles "Pressure / atm" "CO2 / (mol/kgw)"
	 -axis_scale x_axis 0 500
	 -axis_scale y_axis 0 2
	 -initial_solutions true
	 10 x = PR_P("CO2(g)")
	 20 graph_x x # tot("Na")
	 30 graph_y tot("C(4)")
	 -end

	Reading data from CO2_conc_PR_IS.sel ...
	SOLUTION 1
	 temp 25
	 pH 3 charge
	C(4) 1 CO2(g)   4.1393e-02
	pressure   1.1000e+00
	END
-------------------------------------------
Beginning of initial solution calculations.
-------------------------------------------

Initial solution 1.	

-----------------------------Solution composition------------------------------

	Elements           Molality       Moles

	C(4)              3.737e-02   3.737e-02  Equilibrium with CO2(g)

----------------------------Description of solution----------------------------

                                       pH  =   3.891      Charge balance
                                       pe  =   4.000    
      Specific Conductance (µS/cm,  25°C)  = 50
                          Density (g/cm³)  =   0.99740
                               Volume (L)  =   1.00426
                        Viscosity (mPa s)  =   0.89263
                        Activity of water  =   0.999
                 Ionic strength (mol/kgw)  =   1.303e-04
                       Mass of water (kg)  =   1.000e+00
                 Total alkalinity (eq/kg)  =  -9.792e-14
                       Total CO2 (mol/kg)  =   3.737e-02
                         Temperature (°C)  =  25.00
                           Pressure (atm)  =  1.10
                  Electrical balance (eq)  =   9.792e-14
 Percent error, 100*(Cat-|An|)/(Cat+|An|)  =   0.00
                               Iterations  =   5
                                  Total H  = 1.110127e+02
                                  Total O  = 5.558109e+01

----------------------------Distribution of species----------------------------

                                               Log       Log       Log    mole V
   Species          Molality    Activity  Molality  Activity     Gamma   cm³/mol

   H+              1.303e-04   1.286e-04    -3.885    -3.891    -0.006      0.00
   OH-             7.971e-11   7.866e-11   -10.098   -10.104    -0.006     -4.13
   H2O             5.551e+01   9.994e-01     1.744    -0.000     0.000     18.07
C(4)          3.737e-02
   CO2             3.720e-02   3.720e-02    -1.429    -1.429     0.000     34.79
   HCO3-           1.303e-04   1.286e-04    -3.885    -3.891    -0.006     24.53
   (CO2)2          2.249e-05   2.249e-05    -4.648    -4.648     0.000     68.75
   CO3-2           4.943e-11   4.689e-11   -10.306   -10.329    -0.023     -4.76
H(0)          2.341e-19
   H2              1.171e-19   1.171e-19   -18.932   -18.932     0.000     14.99
O(0)          0.000e+00
   O2              0.000e+00   0.000e+00   -54.500   -54.500     0.000     30.40

------------------------------Saturation indices-------------------------------

  Phase               SI** log IAP   log K(298 K,   1 atm)

  CO2(g)            0.04     -1.43   -1.47  CO2	 Pressure   1.1 atm, phi 0.994
  H2(g)           -15.83    -18.93   -3.10  H2
  H2O(g)           -1.50     -0.00    1.50  H2O
  O2(g)           -51.61    -54.50   -2.89  O2

**For a gas, SI = log10(fugacity). Fugacity = pressure * phi / 1 atm.
  For ideal gases, phi = 1.

------------------
End of simulation.
------------------

------------------------------------
Reading input data for simulation 3.
------------------------------------

		SOLUTION 1
	 temp 25
	 pH 3 charge
	C(4) 1 CO2(g)   1.3243e+00
	pressure   2.1100e+01
	END
-------------------------------------------
Beginning of initial solution calculations.
-------------------------------------------

Initial solution 1.	

-----------------------------Solution composition------------------------------

	Elements           Molality       Moles

	C(4)              6.315e-01   6.315e-01  Equilibrium with CO2(g)

----------------------------Description of solution----------------------------

                                       pH  =   3.277      Charge balance
                                       pe  =   4.000    
      Specific Conductance (µS/cm,  25°C)  = 199
                          Density (g/cm³)  =   1.00371
                               Volume (L)  =   1.02400
                        Viscosity (mPa s)  =   0.93313
                        Activity of water  =   0.989
                 Ionic strength (mol/kgw)  =   5.416e-04
                       Mass of water (kg)  =   1.000e+00
                 Total alkalinity (eq/kg)  =  -5.915e-15
                       Total CO2 (mol/kg)  =   6.315e-01
                         Temperature (°C)  =  25.00
                           Pressure (atm)  = 21.10
                  Electrical balance (eq)  =   5.915e-15
 Percent error, 100*(Cat-|An|)/(Cat+|An|)  =   0.00
                               Iterations  =   6
                                  Total H  = 1.110135e+02
                                  Total O  = 5.676966e+01

----------------------------Distribution of species----------------------------

                                               Log       Log       Log    mole V
   Species          Molality    Activity  Molality  Activity     Gamma   cm³/mol

   H+              5.416e-04   5.280e-04    -3.266    -3.277    -0.011      0.00
   OH-             1.984e-11   1.931e-11   -10.703   -10.714    -0.012     -4.04
   H2O             5.551e+01   9.894e-01     1.744    -0.005     0.000     18.05
C(4)          6.315e-01
   CO2             6.185e-01   6.185e-01    -0.209    -0.209     0.000     34.77
   (CO2)2          6.223e-03   6.224e-03    -2.206    -2.206     0.000     68.71
   HCO3-           5.416e-04   5.276e-04    -3.266    -3.278    -0.011     24.61
   CO3-2           5.331e-11   4.800e-11   -10.273   -10.319    -0.046     -4.53
H(0)          3.898e-18
   H2              1.949e-18   1.949e-18   -17.710   -17.710     0.000     15.00
O(0)          0.000e+00
   O2              0.000e+00   0.000e+00   -56.960   -56.960     0.000     30.37

------------------------------Saturation indices-------------------------------

  Phase               SI** log IAP   log K(298 K,  21 atm)

  CO2(g)            1.27     -0.21   -1.48  CO2	 Pressure  21.1 atm, phi 0.886
  H2(g)           -14.61    -17.71   -3.10  H2
  H2O(g)           -1.50     -0.00    1.50  H2O
  O2(g)           -54.06    -56.96   -2.90  O2

**For a gas, SI = log10(fugacity). Fugacity = pressure * phi / 1 atm.
  For ideal gases, phi = 1.

------------------
End of simulation.
------------------

------------------------------------
Reading input data for simulation 4.
------------------------------------

		SOLUTION 1
	 temp 25
	 pH 3 charge
	C(4) 1 CO2(g)   1.6138e+00
	pressure   4.1100e+01
	END
-------------------------------------------
Beginning of initial solution calculations.
-------------------------------------------

Initial solution 1.	

-----------------------------Solution composition------------------------------

	Elements           Molality       Moles

	C(4)              1.070e+00   1.070e+00  Equilibrium with CO2(g)

----------------------------Description of solution----------------------------

                                       pH  =   3.162      Charge balance
                                       pe  =   4.000    
      Specific Conductance (µS/cm,  25°C)  = 252
                          Density (g/cm³)  =   1.00847
                               Volume (L)  =   1.03832
                        Viscosity (mPa s)  =   0.96286
                        Activity of water  =   0.982
                 Ionic strength (mol/kgw)  =   7.085e-04
                       Mass of water (kg)  =   1.000e+00
                 Total alkalinity (eq/kg)  =   8.568e-14
                       Total CO2 (mol/kg)  =   1.070e+00
                         Temperature (°C)  =  25.00
                           Pressure (atm)  = 41.10
                  Electrical balance (eq)  =  -8.568e-14
 Percent error, 100*(Cat-|An|)/(Cat+|An|)  =  -0.00
                               Iterations  =   6
                                  Total H  = 1.110139e+02
                                  Total O  = 5.764732e+01

----------------------------Distribution of species----------------------------

                                               Log       Log       Log    mole V
   Species          Molality    Activity  Molality  Activity     Gamma   cm³/mol

   H+              7.085e-04   6.883e-04    -3.150    -3.162    -0.013      0.00
   OH-             1.543e-11   1.497e-11   -10.812   -10.825    -0.013     -3.96
   H2O             5.551e+01   9.821e-01     1.744    -0.008     0.000     18.04
C(4)          1.070e+00
   CO2             1.035e+00   1.035e+00     0.015     0.015     0.000     34.75
   (CO2)2          1.743e-02   1.743e-02    -1.759    -1.759     0.000     68.66
   HCO3-           7.085e-04   6.877e-04    -3.150    -3.163    -0.013     24.67
   CO3-2           5.536e-11   4.914e-11   -10.257   -10.309    -0.052     -4.33
H(0)          6.543e-18
   H2              3.271e-18   3.272e-18   -17.485   -17.485     0.000     15.02
O(0)          0.000e+00
   O2              0.000e+00   0.000e+00   -57.425   -57.425     0.000     30.34

------------------------------Saturation indices-------------------------------

  Phase               SI** log IAP   log K(298 K,  41 atm)

  CO2(g)            1.51      0.01   -1.49  CO2	 Pressure  41.1 atm, phi 0.783
  H2(g)           -14.38    -17.49   -3.11  H2
  H2O(g)           -1.50     -0.01    1.49  H2O
  O2(g)           -54.51    -57.43   -2.91  O2

**For a gas, SI = log10(fugacity). Fugacity = pressure * phi / 1 atm.
  For ideal gases, phi = 1.

------------------
End of simulation.
------------------

------------------------------------
Reading input data for simulation 5.
------------------------------------

		SOLUTION 1
	 temp 25
	 pH 3 charge
	C(4) 1 CO2(g)   1.7860e+00
	pressure   6.1100e+01
	END
-------------------------------------------
Beginning of initial solution calculations.
-------------------------------------------

Initial solution 1.	

-----------------------------Solution composition------------------------------

	Elements           Molality       Moles

	C(4)              1.354e+00   1.354e+00  Equilibrium with CO2(g)

----------------------------Description of solution----------------------------

                                       pH  =   3.109      Charge balance
                                       pe  =   4.000    
      Specific Conductance (µS/cm,  25°C)  = 279
                          Density (g/cm³)  =   1.01180
                               Volume (L)  =   1.04726
                        Viscosity (mPa s)  =   0.98198
                        Activity of water  =   0.977
                 Ionic strength (mol/kgw)  =   8.022e-04
                       Mass of water (kg)  =   1.000e+00
                 Total alkalinity (eq/kg)  =  -6.409e-16
                       Total CO2 (mol/kg)  =   1.354e+00
                         Temperature (°C)  =  25.00
                           Pressure (atm)  = 61.10
                  Electrical balance (eq)  =   6.409e-16
 Percent error, 100*(Cat-|An|)/(Cat+|An|)  =   0.00
                               Iterations  =   7
                                  Total H  = 1.110140e+02
                                  Total O  = 5.821539e+01

----------------------------Distribution of species----------------------------

                                               Log       Log       Log    mole V
   Species          Molality    Activity  Molality  Activity     Gamma   cm³/mol

   H+              8.022e-04   7.780e-04    -3.096    -3.109    -0.013      0.00
   OH-             1.386e-11   1.342e-11   -10.858   -10.872    -0.014     -3.89
   H2O             5.551e+01   9.774e-01     1.744    -0.010     0.000     18.02
C(4)          1.354e+00
   CO2             1.298e+00   1.299e+00     0.113     0.113     0.000     34.73
   (CO2)2          2.747e-02   2.747e-02    -1.561    -1.561     0.000     68.62
   HCO3-           8.022e-04   7.773e-04    -3.096    -3.109    -0.014     24.73
   CO3-2           5.707e-11   5.030e-11   -10.244   -10.298    -0.055     -4.14
H(0)          8.259e-18
   H2              4.129e-18   4.130e-18   -17.384   -17.384     0.000     15.03
O(0)          0.000e+00
   O2              0.000e+00   0.000e+00   -57.640   -57.640     0.000     30.31

------------------------------Saturation indices-------------------------------

  Phase               SI** log IAP   log K(298 K,  61 atm)

  CO2(g)            1.62      0.11   -1.51  CO2	 Pressure  61.1 atm, phi 0.680
  H2(g)           -14.27    -17.38   -3.12  H2
  H2O(g)           -1.49     -0.01    1.48  H2O
  O2(g)           -54.72    -57.64   -2.92  O2

**For a gas, SI = log10(fugacity). Fugacity = pressure * phi / 1 atm.
  For ideal gases, phi = 1.

------------------
End of simulation.
------------------

------------------------------------
Reading input data for simulation 6.
------------------------------------

		SOLUTION 1
	 temp 25
	 pH 3 charge
	C(4) 1 CO2(g)   1.9090e+00
	pressure   8.1100e+01
	END
-------------------------------------------
Beginning of initial solution calculations.
-------------------------------------------

Initial solution 1.	

-----------------------------Solution composition------------------------------

	Elements           Molality       Moles

	C(4)              1.408e+00   1.408e+00  Equilibrium with CO2(g)

----------------------------Description of solution----------------------------

                                       pH  =   3.096      Charge balance
                                       pe  =   4.000    
      Specific Conductance (µS/cm,  25°C)  = 287
                          Density (g/cm³)  =   1.01315
                               Volume (L)  =   1.04819
                        Viscosity (mPa s)  =   0.98541
                        Activity of water  =   0.977
                 Ionic strength (mol/kgw)  =   8.266e-04
                       Mass of water (kg)  =   1.000e+00
                 Total alkalinity (eq/kg)  =  -1.191e-15
                       Total CO2 (mol/kg)  =   1.408e+00
                         Temperature (°C)  =  25.00
                           Pressure (atm)  = 81.10
                  Electrical balance (eq)  =   1.191e-15
 Percent error, 100*(Cat-|An|)/(Cat+|An|)  =   0.00
                               Iterations  =   7
                                  Total H  = 1.110141e+02
                                  Total O  = 5.832264e+01

----------------------------Distribution of species----------------------------

                                               Log       Log       Log    mole V
   Species          Molality    Activity  Molality  Activity     Gamma   cm³/mol

   H+              8.266e-04   8.013e-04    -3.083    -3.096    -0.013      0.00
   OH-             1.369e-11   1.325e-11   -10.864   -10.878    -0.014     -3.82
   H2O             5.551e+01   9.766e-01     1.744    -0.010     0.000     18.00
C(4)          1.408e+00
   CO2             1.348e+00   1.348e+00     0.130     0.130     0.000     34.71
   (CO2)2          2.961e-02   2.962e-02    -1.528    -1.528     0.000     68.58
   HCO3-           8.266e-04   8.005e-04    -3.083    -3.097    -0.014     24.79
   CO3-2           5.851e-11   5.148e-11   -10.233   -10.288    -0.056     -3.97
H(0)          8.653e-18
   H2              4.327e-18   4.327e-18   -17.364   -17.364     0.000     15.05
O(0)          0.000e+00
   O2              0.000e+00   0.000e+00   -57.690   -57.690     0.000     30.28

------------------------------Saturation indices-------------------------------

  Phase               SI** log IAP   log K(298 K,  81 atm)

  CO2(g)            1.65      0.13   -1.52  CO2	 Pressure  81.1 atm, phi 0.547
  H2(g)           -14.24    -17.36   -3.12  H2
  H2O(g)           -1.49     -0.01    1.48  H2O
  O2(g)           -54.75    -57.69   -2.94  O2

**For a gas, SI = log10(fugacity). Fugacity = pressure * phi / 1 atm.
  For ideal gases, phi = 1.

------------------
End of simulation.
------------------

------------------------------------
Reading input data for simulation 7.
------------------------------------

		SOLUTION 1
	 temp 25
	 pH 3 charge
	C(4) 1 CO2(g)   2.0048e+00
	pressure   1.0110e+02
	END
-------------------------------------------
Beginning of initial solution calculations.
-------------------------------------------

Initial solution 1.	

-----------------------------Solution composition------------------------------

	Elements           Molality       Moles

	C(4)              1.436e+00   1.436e+00  Equilibrium with CO2(g)

----------------------------Description of solution----------------------------

                                       pH  =   3.087      Charge balance
                                       pe  =   4.000    
      Specific Conductance (µS/cm,  25°C)  = 293
                          Density (g/cm³)  =   1.01428
                               Volume (L)  =   1.04825
                        Viscosity (mPa s)  =   0.98712
                        Activity of water  =   0.976
                 Ionic strength (mol/kgw)  =   8.439e-04
                       Mass of water (kg)  =   1.000e+00
                 Total alkalinity (eq/kg)  =  -1.747e-15
                       Total CO2 (mol/kg)  =   1.436e+00
                         Temperature (°C)  =  25.00
                           Pressure (atm)  = 101.10
                  Electrical balance (eq)  =   1.747e-15
 Percent error, 100*(Cat-|An|)/(Cat+|An|)  =   0.00
                               Iterations  =   7
                                  Total H  = 1.110141e+02
                                  Total O  = 5.837935e+01

----------------------------Distribution of species----------------------------

                                               Log       Log       Log    mole V
   Species          Molality    Activity  Molality  Activity     Gamma   cm³/mol

   H+              8.439e-04   8.180e-04    -3.074    -3.087    -0.014      0.00
   OH-             1.364e-11   1.320e-11   -10.865   -10.879    -0.014     -3.75
   H2O             5.551e+01   9.761e-01     1.744    -0.011     0.000     17.99
C(4)          1.436e+00
   CO2             1.374e+00   1.374e+00     0.138     0.138     0.000     34.69
   (CO2)2          3.079e-02   3.079e-02    -1.512    -1.512     0.000     68.54
   HCO3-           8.439e-04   8.171e-04    -3.074    -3.088    -0.014     24.85
   CO3-2           5.994e-11   5.267e-11   -10.222   -10.278    -0.056     -3.79
H(0)          8.905e-18
   H2              4.453e-18   4.454e-18   -17.351   -17.351     0.000     15.06
O(0)          0.000e+00
   O2              0.000e+00   0.000e+00   -57.724   -57.724     0.000     30.26

------------------------------Saturation indices-------------------------------

  Phase               SI** log IAP   log K(298 K, 101 atm)

  CO2(g)            1.67      0.14   -1.53  CO2	 Pressure 101.1 atm, phi 0.460
  H2(g)           -14.23    -17.35   -3.13  H2
  H2O(g)           -1.48     -0.01    1.47  H2O
  O2(g)           -54.78    -57.72   -2.95  O2

**For a gas, SI = log10(fugacity). Fugacity = pressure * phi / 1 atm.
  For ideal gases, phi = 1.

------------------
End of simulation.
------------------

------------------------------------
Reading input data for simulation 8.
------------------------------------

		SOLUTION 1
	 temp 25
	 pH 3 charge
	C(4) 1 CO2(g)   2.0831e+00
	pressure   1.2110e+02
	END
-------------------------------------------
Beginning of initial solution calculations.
-------------------------------------------

Initial solution 1.	

-----------------------------Solution composition------------------------------

	Elements           Molality       Moles

	C(4)              1.461e+00   1.461e+00  Equilibrium with CO2(g)

----------------------------Description of solution----------------------------

                                       pH  =   3.079      Charge balance
                                       pe  =   4.000    
      Specific Conductance (µS/cm,  25°C)  = 298
                          Density (g/cm³)  =   1.01538
                               Volume (L)  =   1.04819
                        Viscosity (mPa s)  =   0.98859
                        Activity of water  =   0.976
                 Ionic strength (mol/kgw)  =   8.604e-04
                       Mass of water (kg)  =   1.000e+00
                 Total alkalinity (eq/kg)  =  -2.386e-15
                       Total CO2 (mol/kg)  =   1.461e+00
                         Temperature (°C)  =  25.00
                           Pressure (atm)  = 121.10
                  Electrical balance (eq)  =   2.386e-15
 Percent error, 100*(Cat-|An|)/(Cat+|An|)  =   0.00
                               Iterations  =   7
                                  Total H  = 1.110142e+02
                                  Total O  = 5.842854e+01

----------------------------Distribution of species----------------------------

                                               Log       Log       Log    mole V
   Species          Molality    Activity  Molality  Activity     Gamma   cm³/mol

   H+              8.604e-04   8.337e-04    -3.065    -3.079    -0.014      0.00
   OH-             1.362e-11   1.317e-11   -10.866   -10.880    -0.014     -3.68
   H2O             5.551e+01   9.757e-01     1.744    -0.011     0.000     17.97
C(4)          1.461e+00
   CO2             1.396e+00   1.396e+00     0.145     0.145     0.000     34.67
   (CO2)2          3.183e-02   3.183e-02    -1.497    -1.497     0.000     68.50
   HCO3-           8.604e-04   8.328e-04    -3.065    -3.079    -0.014     24.91
   CO3-2           6.139e-11   5.389e-11   -10.212   -10.268    -0.057     -3.62
H(0)          9.138e-18
   H2              4.569e-18   4.570e-18   -17.340   -17.340     0.000     15.07
O(0)          0.000e+00
   O2              0.000e+00   0.000e+00   -57.756   -57.756     0.000     30.23

------------------------------Saturation indices-------------------------------

  Phase               SI** log IAP   log K(298 K, 121 atm)

  CO2(g)            1.69      0.15   -1.54  CO2	 Pressure 121.1 atm, phi 0.402
  H2(g)           -14.21    -17.34   -3.13  H2
  H2O(g)           -1.48     -0.01    1.46  H2O
  O2(g)           -54.80    -57.76   -2.96  O2

**For a gas, SI = log10(fugacity). Fugacity = pressure * phi / 1 atm.
  For ideal gases, phi = 1.

------------------
End of simulation.
------------------

------------------------------------
Reading input data for simulation 9.
------------------------------------

		SOLUTION 1
	 temp 25
	 pH 3 charge
	C(4) 1 CO2(g)   2.1495e+00
	pressure   1.4110e+02
	END
-------------------------------------------
Beginning of initial solution calculations.
-------------------------------------------

Initial solution 1.	

-----------------------------Solution composition------------------------------

	Elements           Molality       Moles

	C(4)              1.483e+00   1.483e+00  Equilibrium with CO2(g)

----------------------------Description of solution----------------------------

                                       pH  =   3.071      Charge balance
                                       pe  =   4.000    
      Specific Conductance (µS/cm,  25°C)  = 304
                          Density (g/cm³)  =   1.01645
                               Volume (L)  =   1.04805
                        Viscosity (mPa s)  =   0.98992
                        Activity of water  =   0.975
                 Ionic strength (mol/kgw)  =   8.763e-04
                       Mass of water (kg)  =   1.000e+00
                 Total alkalinity (eq/kg)  =  -3.110e-15
                       Total CO2 (mol/kg)  =   1.483e+00
                         Temperature (°C)  =  25.00
                           Pressure (atm)  = 141.10
                  Electrical balance (eq)  =   3.110e-15
 Percent error, 100*(Cat-|An|)/(Cat+|An|)  =   0.00
                               Iterations  =   7
                                  Total H  = 1.110142e+02
                                  Total O  = 5.847309e+01

----------------------------Distribution of species----------------------------

                                               Log       Log       Log    mole V
   Species          Molality    Activity  Molality  Activity     Gamma   cm³/mol

   H+              8.763e-04   8.489e-04    -3.057    -3.071    -0.014      0.00
   OH-             1.360e-11   1.316e-11   -10.866   -10.881    -0.015     -3.61
   H2O             5.551e+01   9.753e-01     1.744    -0.011     0.000     17.96
C(4)          1.483e+00
   CO2             1.417e+00   1.417e+00     0.151     0.151     0.000     34.65
   (CO2)2          3.278e-02   3.279e-02    -1.484    -1.484     0.000     68.45
   HCO3-           8.763e-04   8.481e-04    -3.057    -3.072    -0.014     24.97
   CO3-2           6.286e-11   5.513e-11   -10.202   -10.259    -0.057     -3.45
H(0)          9.358e-18
   H2              4.679e-18   4.680e-18   -17.330   -17.330     0.000     15.08
O(0)          0.000e+00
   O2              0.000e+00   0.000e+00   -57.786   -57.786     0.000     30.20

------------------------------Saturation indices-------------------------------

  Phase               SI** log IAP   log K(298 K, 141 atm)

  CO2(g)            1.71      0.15   -1.55  CO2	 Pressure 141.1 atm, phi 0.360
  H2(g)           -14.19    -17.33   -3.14  H2
  H2O(g)           -1.47     -0.01    1.46  H2O
  O2(g)           -54.82    -57.79   -2.97  O2

**For a gas, SI = log10(fugacity). Fugacity = pressure * phi / 1 atm.
  For ideal gases, phi = 1.

------------------
End of simulation.
------------------

-------------------------------------
Reading input data for simulation 10.
-------------------------------------

		SOLUTION 1
	 temp 25
	 pH 3 charge
	C(4) 1 CO2(g)   2.2071e+00
	pressure   1.6110e+02
	END
-------------------------------------------
Beginning of initial solution calculations.
-------------------------------------------

Initial solution 1.	

-----------------------------Solution composition------------------------------

	Elements           Molality       Moles

	C(4)              1.503e+00   1.503e+00  Equilibrium with CO2(g)

----------------------------Description of solution----------------------------

                                       pH  =   3.064      Charge balance
                                       pe  =   4.000    
      Specific Conductance (µS/cm,  25°C)  = 309
                          Density (g/cm³)  =   1.01750
                               Volume (L)  =   1.04785
                        Viscosity (mPa s)  =   0.99115
                        Activity of water  =   0.975
                 Ionic strength (mol/kgw)  =   8.919e-04
                       Mass of water (kg)  =   1.000e+00
                 Total alkalinity (eq/kg)  =  -3.921e-15
                       Total CO2 (mol/kg)  =   1.503e+00
                         Temperature (°C)  =  25.00
                           Pressure (atm)  = 161.10
                  Electrical balance (eq)  =   3.921e-15
 Percent error, 100*(Cat-|An|)/(Cat+|An|)  =   0.00
                               Iterations  =   7
                                  Total H  = 1.110142e+02
                                  Total O  = 5.851410e+01

----------------------------Distribution of species----------------------------

                                               Log       Log       Log    mole V
   Species          Molality    Activity  Molality  Activity     Gamma   cm³/mol

   H+              8.919e-04   8.638e-04    -3.050    -3.064    -0.014      0.00
   OH-             1.360e-11   1.315e-11   -10.867   -10.881    -0.015     -3.54
   H2O             5.551e+01   9.750e-01     1.744    -0.011     0.000     17.94
C(4)          1.503e+00
   CO2             1.435e+00   1.435e+00     0.157     0.157     0.000     34.63
   (CO2)2          3.368e-02   3.368e-02    -1.473    -1.473     0.000     68.41
   HCO3-           8.919e-04   8.629e-04    -3.050    -3.064    -0.014     25.02
   CO3-2           6.435e-11   5.638e-11   -10.191   -10.249    -0.057     -3.28
H(0)          9.570e-18
   H2              4.785e-18   4.786e-18   -17.320   -17.320     0.000     15.10
O(0)          0.000e+00
   O2              0.000e+00   0.000e+00   -57.814   -57.814     0.000     30.17

------------------------------Saturation indices-------------------------------

  Phase               SI** log IAP   log K(298 K, 161 atm)

  CO2(g)            1.72      0.16   -1.57  CO2	 Pressure 161.1 atm, phi 0.328
  H2(g)           -14.18    -17.32   -3.14  H2
  H2O(g)           -1.46     -0.01    1.45  H2O
  O2(g)           -54.84    -57.81   -2.98  O2

**For a gas, SI = log10(fugacity). Fugacity = pressure * phi / 1 atm.
  For ideal gases, phi = 1.

------------------
End of simulation.
------------------

-------------------------------------
Reading input data for simulation 11.
-------------------------------------

		SOLUTION 1
	 temp 25
	 pH 3 charge
	C(4) 1 CO2(g)   2.2579e+00
	pressure   1.8110e+02
	END
-------------------------------------------
Beginning of initial solution calculations.
-------------------------------------------

Initial solution 1.	

-----------------------------Solution composition------------------------------

	Elements           Molality       Moles

	C(4)              1.523e+00   1.523e+00  Equilibrium with CO2(g)

----------------------------Description of solution----------------------------

                                       pH  =   3.056      Charge balance
                                       pe  =   4.000    
      Specific Conductance (µS/cm,  25°C)  = 315
                          Density (g/cm³)  =   1.01854
                               Volume (L)  =   1.04760
                        Viscosity (mPa s)  =   0.99228
                        Activity of water  =   0.975
                 Ionic strength (mol/kgw)  =   9.072e-04
                       Mass of water (kg)  =   1.000e+00
                 Total alkalinity (eq/kg)  =  -4.813e-15
                       Total CO2 (mol/kg)  =   1.523e+00
                         Temperature (°C)  =  25.00
                           Pressure (atm)  = 181.10
                  Electrical balance (eq)  =   4.813e-15
 Percent error, 100*(Cat-|An|)/(Cat+|An|)  =   0.00
                               Iterations  =   7
                                  Total H  = 1.110142e+02
                                  Total O  = 5.855213e+01

----------------------------Distribution of species----------------------------

                                               Log       Log       Log    mole V
   Species          Molality    Activity  Molality  Activity     Gamma   cm³/mol

   H+              9.072e-04   8.784e-04    -3.042    -3.056    -0.014      0.00
   OH-             1.360e-11   1.315e-11   -10.866   -10.881    -0.015     -3.47
   H2O             5.551e+01   9.747e-01     1.744    -0.011     0.000     17.92
C(4)          1.523e+00
   CO2             1.453e+00   1.453e+00     0.162     0.162     0.000     34.60
   (CO2)2          3.452e-02   3.452e-02    -1.462    -1.462     0.000     68.37
   HCO3-           9.072e-04   8.775e-04    -3.042    -3.057    -0.014     25.08
   CO3-2           6.586e-11   5.765e-11   -10.181   -10.239    -0.058     -3.11
H(0)          9.774e-18
   H2              4.887e-18   4.888e-18   -17.311   -17.311     0.000     15.11
O(0)          0.000e+00
   O2              0.000e+00   0.000e+00   -57.842   -57.841     0.000     30.15

------------------------------Saturation indices-------------------------------

  Phase               SI** log IAP   log K(298 K, 181 atm)

  CO2(g)            1.74      0.16   -1.58  CO2	 Pressure 181.1 atm, phi 0.304
  H2(g)           -14.16    -17.31   -3.15  H2
  H2O(g)           -1.46     -0.01    1.45  H2O
  O2(g)           -54.85    -57.84   -2.99  O2

**For a gas, SI = log10(fugacity). Fugacity = pressure * phi / 1 atm.
  For ideal gases, phi = 1.

------------------
End of simulation.
------------------

-------------------------------------
Reading input data for simulation 12.
-------------------------------------

		SOLUTION 1
	 temp 25
	 pH 3 charge
	C(4) 1 CO2(g)   2.3034e+00
	pressure   2.0110e+02
	END
-------------------------------------------
Beginning of initial solution calculations.
-------------------------------------------

Initial solution 1.	

-----------------------------Solution composition------------------------------

	Elements           Molality       Moles

	C(4)              1.540e+00   1.540e+00  Equilibrium with CO2(g)

----------------------------Description of solution----------------------------

                                       pH  =   3.049      Charge balance
                                       pe  =   4.000    
      Specific Conductance (µS/cm,  25°C)  = 320
                          Density (g/cm³)  =   1.01957
                               Volume (L)  =   1.04731
                        Viscosity (mPa s)  =   0.99336
                        Activity of water  =   0.974
                 Ionic strength (mol/kgw)  =   9.223e-04
                       Mass of water (kg)  =   1.000e+00
                 Total alkalinity (eq/kg)  =  -5.795e-15
                       Total CO2 (mol/kg)  =   1.540e+00
                         Temperature (°C)  =  25.00
                           Pressure (atm)  = 201.10
                  Electrical balance (eq)  =   5.795e-15
 Percent error, 100*(Cat-|An|)/(Cat+|An|)  =   0.00
                               Iterations  =   7
                                  Total H  = 1.110143e+02
                                  Total O  = 5.858785e+01

----------------------------Distribution of species----------------------------

                                               Log       Log       Log    mole V
   Species          Molality    Activity  Molality  Activity     Gamma   cm³/mol

   H+              9.223e-04   8.929e-04    -3.035    -3.049    -0.014      0.00
   OH-             1.361e-11   1.315e-11   -10.866   -10.881    -0.015     -3.40
   H2O             5.551e+01   9.744e-01     1.744    -0.011     0.000     17.91
C(4)          1.540e+00
   CO2             1.469e+00   1.469e+00     0.167     0.167     0.000     34.58
   (CO2)2          3.532e-02   3.532e-02    -1.452    -1.452     0.000     68.33
   HCO3-           9.223e-04   8.919e-04    -3.035    -3.050    -0.015     25.13
   CO3-2           6.740e-11   5.894e-11   -10.171   -10.230    -0.058     -2.95
H(0)          9.972e-18
   H2              4.986e-18   4.987e-18   -17.302   -17.302     0.000     15.12
O(0)          0.000e+00
   O2              0.000e+00   0.000e+00   -57.868   -57.868     0.000     30.12

------------------------------Saturation indices-------------------------------

  Phase               SI** log IAP   log K(298 K, 201 atm)

  CO2(g)            1.76      0.17   -1.59  CO2	 Pressure 201.1 atm, phi 0.285
  H2(g)           -14.15    -17.30   -3.15  H2
  H2O(g)           -1.45     -0.01    1.44  H2O
  O2(g)           -54.87    -57.87   -3.00  O2

**For a gas, SI = log10(fugacity). Fugacity = pressure * phi / 1 atm.
  For ideal gases, phi = 1.

------------------
End of simulation.
------------------

-------------------------------------
Reading input data for simulation 13.
-------------------------------------

		SOLUTION 1
	 temp 25
	 pH 3 charge
	C(4) 1 CO2(g)   2.3446e+00
	pressure   2.2110e+02
	END
-------------------------------------------
Beginning of initial solution calculations.
-------------------------------------------

Initial solution 1.	

-----------------------------Solution composition------------------------------

	Elements           Molality       Moles

	C(4)              1.557e+00   1.557e+00  Equilibrium with CO2(g)

----------------------------Description of solution----------------------------

                                       pH  =   3.042      Charge balance
                                       pe  =   4.000    
      Specific Conductance (µS/cm,  25°C)  = 325
                          Density (g/cm³)  =   1.02059
                               Volume (L)  =   1.04700
                        Viscosity (mPa s)  =   0.99438
                        Activity of water  =   0.974
                 Ionic strength (mol/kgw)  =   9.372e-04
                       Mass of water (kg)  =   1.000e+00
                 Total alkalinity (eq/kg)  =  -6.844e-15
                       Total CO2 (mol/kg)  =   1.557e+00
                         Temperature (°C)  =  25.00
                           Pressure (atm)  = 221.10
                  Electrical balance (eq)  =   6.844e-15
 Percent error, 100*(Cat-|An|)/(Cat+|An|)  =   0.00
                               Iterations  =   7
                                  Total H  = 1.110143e+02
                                  Total O  = 5.862162e+01

----------------------------Distribution of species----------------------------

                                               Log       Log       Log    mole V
   Species          Molality    Activity  Molality  Activity     Gamma   cm³/mol

   H+              9.372e-04   9.071e-04    -3.028    -3.042    -0.014      0.00
   OH-             1.362e-11   1.316e-11   -10.866   -10.881    -0.015     -3.34
   H2O             5.551e+01   9.741e-01     1.744    -0.011     0.000     17.89
C(4)          1.557e+00
   CO2             1.484e+00   1.484e+00     0.171     0.172     0.000     34.56
   (CO2)2          3.608e-02   3.609e-02    -1.443    -1.443     0.000     68.29
   HCO3-           9.372e-04   9.061e-04    -3.028    -3.043    -0.015     25.19
   CO3-2           6.896e-11   6.025e-11   -10.161   -10.220    -0.059     -2.79
H(0)          1.017e-17
   H2              5.083e-18   5.084e-18   -17.294   -17.294     0.000     15.13
O(0)          0.000e+00
   O2              0.000e+00   0.000e+00   -57.894   -57.894     0.000     30.09

------------------------------Saturation indices-------------------------------

  Phase               SI** log IAP   log K(298 K, 221 atm)

  CO2(g)            1.77      0.17   -1.60  CO2	 Pressure 221.1 atm, phi 0.269
  H2(g)           -14.14    -17.29   -3.16  H2
  H2O(g)           -1.44     -0.01    1.43  H2O
  O2(g)           -54.88    -57.89   -3.01  O2

**For a gas, SI = log10(fugacity). Fugacity = pressure * phi / 1 atm.
  For ideal gases, phi = 1.

------------------
End of simulation.
------------------

-------------------------------------
Reading input data for simulation 14.
-------------------------------------

		SOLUTION 1
	 temp 25
	 pH 3 charge
	C(4) 1 CO2(g)   2.3822e+00
	pressure   2.4110e+02
	END
-------------------------------------------
Beginning of initial solution calculations.
-------------------------------------------

Initial solution 1.	

-----------------------------Solution composition------------------------------

	Elements           Molality       Moles

	C(4)              1.573e+00   1.573e+00  Equilibrium with CO2(g)

----------------------------Description of solution----------------------------

                                       pH  =   3.036      Charge balance
                                       pe  =   4.000    
      Specific Conductance (µS/cm,  25°C)  = 331
                          Density (g/cm³)  =   1.02159
                               Volume (L)  =   1.04666
                        Viscosity (mPa s)  =   0.99535
                        Activity of water  =   0.974
                 Ionic strength (mol/kgw)  =   9.520e-04
                       Mass of water (kg)  =   1.000e+00
                 Total alkalinity (eq/kg)  =  -7.959e-15
                       Total CO2 (mol/kg)  =   1.573e+00
                         Temperature (°C)  =  25.00
                           Pressure (atm)  = 241.10
                  Electrical balance (eq)  =   7.959e-15
 Percent error, 100*(Cat-|An|)/(Cat+|An|)  =   0.00
                               Iterations  =   7
                                  Total H  = 1.110143e+02
                                  Total O  = 5.865354e+01

----------------------------Distribution of species----------------------------

                                               Log       Log       Log    mole V
   Species          Molality    Activity  Molality  Activity     Gamma   cm³/mol

   H+              9.520e-04   9.212e-04    -3.021    -3.036    -0.014      0.00
   OH-             1.363e-11   1.317e-11   -10.865   -10.880    -0.015     -3.27
   H2O             5.551e+01   9.739e-01     1.744    -0.012     0.000     17.88
C(4)          1.573e+00
   CO2             1.499e+00   1.499e+00     0.176     0.176     0.000     34.55
   (CO2)2          3.682e-02   3.682e-02    -1.434    -1.434     0.000     68.25
   HCO3-           9.520e-04   9.202e-04    -3.021    -3.036    -0.015     25.24
   CO3-2           7.054e-11   6.158e-11   -10.152   -10.211    -0.059     -2.63
H(0)          1.035e-17
   H2              5.177e-18   5.178e-18   -17.286   -17.286     0.000     15.14
O(0)          0.000e+00
   O2              0.000e+00   0.000e+00   -57.919   -57.919     0.000     30.07

------------------------------Saturation indices-------------------------------

  Phase               SI** log IAP   log K(298 K, 241 atm)

  CO2(g)            1.79      0.18   -1.62  CO2	 Pressure 241.1 atm, phi 0.256
  H2(g)           -14.12    -17.29   -3.16  H2
  H2O(g)           -1.44     -0.01    1.43  H2O
  O2(g)           -54.90    -57.92   -3.02  O2

**For a gas, SI = log10(fugacity). Fugacity = pressure * phi / 1 atm.
  For ideal gases, phi = 1.

------------------
End of simulation.
------------------

-------------------------------------
Reading input data for simulation 15.
-------------------------------------

		SOLUTION 1
	 temp 25
	 pH 3 charge
	C(4) 1 CO2(g)   2.4168e+00
	pressure   2.6110e+02
	END
-------------------------------------------
Beginning of initial solution calculations.
-------------------------------------------

Initial solution 1.	

-----------------------------Solution composition------------------------------

	Elements           Molality       Moles

	C(4)              1.588e+00   1.588e+00  Equilibrium with CO2(g)

----------------------------Description of solution----------------------------

                                       pH  =   3.029      Charge balance
                                       pe  =   4.000    
      Specific Conductance (µS/cm,  25°C)  = 336
                          Density (g/cm³)  =   1.02258
                               Volume (L)  =   1.04629
                        Viscosity (mPa s)  =   0.99629
                        Activity of water  =   0.974
                 Ionic strength (mol/kgw)  =   9.666e-04
                       Mass of water (kg)  =   1.000e+00
                 Total alkalinity (eq/kg)  =  -9.143e-15
                       Total CO2 (mol/kg)  =   1.588e+00
                         Temperature (°C)  =  25.00
                           Pressure (atm)  = 261.10
                  Electrical balance (eq)  =   9.143e-15
 Percent error, 100*(Cat-|An|)/(Cat+|An|)  =   0.00
                               Iterations  =   7
                                  Total H  = 1.110144e+02
                                  Total O  = 5.868391e+01

----------------------------Distribution of species----------------------------

                                               Log       Log       Log    mole V
   Species          Molality    Activity  Molality  Activity     Gamma   cm³/mol

   H+              9.666e-04   9.352e-04    -3.015    -3.029    -0.014      0.00
   OH-             1.365e-11   1.318e-11   -10.865   -10.880    -0.015     -3.21
   H2O             5.551e+01   9.736e-01     1.744    -0.012     0.000     17.86
C(4)          1.588e+00
   CO2             1.512e+00   1.513e+00     0.180     0.180     0.000     34.53
   (CO2)2          3.752e-02   3.753e-02    -1.426    -1.426     0.000     68.21
   HCO3-           9.666e-04   9.342e-04    -3.015    -3.030    -0.015     25.29
   CO3-2           7.214e-11   6.293e-11   -10.142   -10.201    -0.059     -2.47
H(0)          1.054e-17
   H2              5.269e-18   5.271e-18   -17.278   -17.278     0.000     15.16
O(0)          0.000e+00
   O2              0.000e+00   0.000e+00   -57.943   -57.943     0.000     30.04

------------------------------Saturation indices-------------------------------

  Phase               SI** log IAP   log K(298 K, 261 atm)

  CO2(g)            1.81      0.18   -1.63  CO2	 Pressure 261.1 atm, phi 0.246
  H2(g)           -14.11    -17.28   -3.17  H2
  H2O(g)           -1.43     -0.01    1.42  H2O
  O2(g)           -54.91    -57.94   -3.03  O2

**For a gas, SI = log10(fugacity). Fugacity = pressure * phi / 1 atm.
  For ideal gases, phi = 1.

------------------
End of simulation.
------------------

-------------------------------------
Reading input data for simulation 16.
-------------------------------------

		SOLUTION 1
	 temp 25
	 pH 3 charge
	C(4) 1 CO2(g)   2.4489e+00
	pressure   2.8110e+02
	END
-------------------------------------------
Beginning of initial solution calculations.
-------------------------------------------

Initial solution 1.	

-----------------------------Solution composition------------------------------

	Elements           Molality       Moles

	C(4)              1.603e+00   1.603e+00  Equilibrium with CO2(g)

----------------------------Description of solution----------------------------

                                       pH  =   3.023      Charge balance
                                       pe  =   4.000    
      Specific Conductance (µS/cm,  25°C)  = 341
                          Density (g/cm³)  =   1.02357
                               Volume (L)  =   1.04591
                        Viscosity (mPa s)  =   0.99720
                        Activity of water  =   0.973
                 Ionic strength (mol/kgw)  =   9.812e-04
                       Mass of water (kg)  =   1.000e+00
                 Total alkalinity (eq/kg)  =  -1.041e-14
                       Total CO2 (mol/kg)  =   1.603e+00
                         Temperature (°C)  =  25.00
                           Pressure (atm)  = 281.10
                  Electrical balance (eq)  =   1.041e-14
 Percent error, 100*(Cat-|An|)/(Cat+|An|)  =   0.00
                               Iterations  =   7
                                  Total H  = 1.110144e+02
                                  Total O  = 5.871311e+01

----------------------------Distribution of species----------------------------

                                               Log       Log       Log    mole V
   Species          Molality    Activity  Molality  Activity     Gamma   cm³/mol

   H+              9.812e-04   9.492e-04    -3.008    -3.023    -0.014      0.00
   OH-             1.367e-11   1.320e-11   -10.864   -10.879    -0.015     -3.14
   H2O             5.551e+01   9.734e-01     1.744    -0.012     0.000     17.85
C(4)          1.603e+00
   CO2             1.526e+00   1.526e+00     0.183     0.183     0.000     34.51
   (CO2)2          3.821e-02   3.821e-02    -1.418    -1.418     0.000     68.18
   HCO3-           9.812e-04   9.481e-04    -3.008    -3.023    -0.015     25.34
   CO3-2           7.377e-11   6.429e-11   -10.132   -10.192    -0.060     -2.31
H(0)          1.072e-17
   H2              5.360e-18   5.362e-18   -17.271   -17.271     0.000     15.17
O(0)          0.000e+00
   O2              0.000e+00   0.000e+00   -57.967   -57.967     0.000     30.02

------------------------------Saturation indices-------------------------------

  Phase               SI** log IAP   log K(298 K, 281 atm)

  CO2(g)            1.82      0.18   -1.64  CO2	 Pressure 281.1 atm, phi 0.237
  H2(g)           -14.10    -17.27   -3.17  H2
  H2O(g)           -1.43     -0.01    1.41  H2O
  O2(g)           -54.93    -57.97   -3.04  O2

**For a gas, SI = log10(fugacity). Fugacity = pressure * phi / 1 atm.
  For ideal gases, phi = 1.

------------------
End of simulation.
------------------

-------------------------------------
Reading input data for simulation 17.
-------------------------------------

		SOLUTION 1
	 temp 25
	 pH 3 charge
	C(4) 1 CO2(g)   2.4787e+00
	pressure   3.0110e+02
	END
-------------------------------------------
Beginning of initial solution calculations.
-------------------------------------------

Initial solution 1.	

-----------------------------Solution composition------------------------------

	Elements           Molality       Moles

	C(4)              1.617e+00   1.617e+00  Equilibrium with CO2(g)

----------------------------Description of solution----------------------------

                                       pH  =   3.016      Charge balance
                                       pe  =   4.000    
      Specific Conductance (µS/cm,  25°C)  = 346
                          Density (g/cm³)  =   1.02455
                               Volume (L)  =   1.04551
                        Viscosity (mPa s)  =   0.99808
                        Activity of water  =   0.973
                 Ionic strength (mol/kgw)  =   9.957e-04
                       Mass of water (kg)  =   1.000e+00
                 Total alkalinity (eq/kg)  =  -1.171e-14
                       Total CO2 (mol/kg)  =   1.617e+00
                         Temperature (°C)  =  25.00
                           Pressure (atm)  = 301.10
                  Electrical balance (eq)  =   1.171e-14
 Percent error, 100*(Cat-|An|)/(Cat+|An|)  =   0.00
                               Iterations  =   7
                                  Total H  = 1.110144e+02
                                  Total O  = 5.874068e+01

----------------------------Distribution of species----------------------------

                                               Log       Log       Log    mole V
   Species          Molality    Activity  Molality  Activity     Gamma   cm³/mol

   H+              9.957e-04   9.630e-04    -3.002    -3.016    -0.015      0.00
   OH-             1.369e-11   1.322e-11   -10.863   -10.879    -0.015     -3.08
   H2O             5.551e+01   9.732e-01     1.744    -0.012     0.000     17.83
C(4)          1.617e+00
   CO2             1.538e+00   1.538e+00     0.187     0.187     0.000     34.49
   (CO2)2          3.886e-02   3.887e-02    -1.411    -1.410     0.000     68.14
   HCO3-           9.957e-04   9.619e-04    -3.002    -3.017    -0.015     25.40
   CO3-2           7.543e-11   6.568e-11   -10.122   -10.183    -0.060     -2.16
H(0)          1.090e-17
   H2              5.449e-18   5.450e-18   -17.264   -17.264     0.000     15.18
O(0)          0.000e+00
   O2              0.000e+00   0.000e+00   -57.991   -57.991     0.000     29.99

------------------------------Saturation indices-------------------------------

  Phase               SI** log IAP   log K(298 K, 301 atm)

  CO2(g)            1.84      0.19   -1.65  CO2	 Pressure 301.1 atm, phi 0.229
  H2(g)           -14.08    -17.26   -3.18  H2
  H2O(g)           -1.42     -0.01    1.41  H2O
  O2(g)           -54.94    -57.99   -3.05  O2

**For a gas, SI = log10(fugacity). Fugacity = pressure * phi / 1 atm.
  For ideal gases, phi = 1.

------------------
End of simulation.
------------------

-------------------------------------
Reading input data for simulation 18.
-------------------------------------

		SOLUTION 1
	 temp 25
	 pH 3 charge
	C(4) 1 CO2(g)   2.5066e+00
	pressure   3.2110e+02
	END
-------------------------------------------
Beginning of initial solution calculations.
-------------------------------------------

Initial solution 1.	

-----------------------------Solution composition------------------------------

	Elements           Molality       Moles

	C(4)              1.630e+00   1.630e+00  Equilibrium with CO2(g)

----------------------------Description of solution----------------------------

                                       pH  =   3.010      Charge balance
                                       pe  =   4.000    
      Specific Conductance (µS/cm,  25°C)  = 352
                          Density (g/cm³)  =   1.02551
                               Volume (L)  =   1.04509
                        Viscosity (mPa s)  =   0.99893
                        Activity of water  =   0.973
                 Ionic strength (mol/kgw)  =   1.010e-03
                       Mass of water (kg)  =   1.000e+00
                 Total alkalinity (eq/kg)  =  -1.306e-14
                       Total CO2 (mol/kg)  =   1.630e+00
                         Temperature (°C)  =  25.00
                           Pressure (atm)  = 321.10
                  Electrical balance (eq)  =   1.306e-14
 Percent error, 100*(Cat-|An|)/(Cat+|An|)  =   0.00
                               Iterations  =   7
                                  Total H  = 1.110145e+02
                                  Total O  = 5.876718e+01

----------------------------Distribution of species----------------------------

                                               Log       Log       Log    mole V
   Species          Molality    Activity  Molality  Activity     Gamma   cm³/mol

   H+              1.010e-03   9.768e-04    -2.996    -3.010    -0.015      0.00
   OH-             1.372e-11   1.324e-11   -10.863   -10.878    -0.015     -3.02
   H2O             5.551e+01   9.729e-01     1.744    -0.012     0.000     17.82
C(4)          1.630e+00
   CO2             1.550e+00   1.550e+00     0.190     0.190     0.000     34.47
   (CO2)2          3.949e-02   3.950e-02    -1.403    -1.403     0.000     68.10
   HCO3-           1.010e-03   9.757e-04    -2.996    -3.011    -0.015     25.45
   CO3-2           7.711e-11   6.709e-11   -10.113   -10.173    -0.060     -2.01
H(0)          1.107e-17
   H2              5.536e-18   5.538e-18   -17.257   -17.257     0.000     15.19
O(0)          0.000e+00
   O2              0.000e+00   0.000e+00   -58.014   -58.013     0.000     29.97

------------------------------Saturation indices-------------------------------

  Phase               SI** log IAP   log K(298 K, 321 atm)

  CO2(g)            1.85      0.19   -1.66  CO2	 Pressure 321.1 atm, phi 0.223
  H2(g)           -14.07    -17.26   -3.19  H2
  H2O(g)           -1.41     -0.01    1.40  H2O
  O2(g)           -54.95    -58.01   -3.06  O2

**For a gas, SI = log10(fugacity). Fugacity = pressure * phi / 1 atm.
  For ideal gases, phi = 1.

------------------
End of simulation.
------------------

-------------------------------------
Reading input data for simulation 19.
-------------------------------------

		SOLUTION 1
	 temp 25
	 pH 3 charge
	C(4) 1 CO2(g)   2.5329e+00
	pressure   3.4110e+02
	END
-------------------------------------------
Beginning of initial solution calculations.
-------------------------------------------

Initial solution 1.	

-----------------------------Solution composition------------------------------

	Elements           Molality       Moles

	C(4)              1.643e+00   1.643e+00  Equilibrium with CO2(g)

----------------------------Description of solution----------------------------

                                       pH  =   3.004      Charge balance
                                       pe  =   4.000    
      Specific Conductance (µS/cm,  25°C)  = 357
                          Density (g/cm³)  =   1.02648
                               Volume (L)  =   1.04466
                        Viscosity (mPa s)  =   0.99977
                        Activity of water  =   0.973
                 Ionic strength (mol/kgw)  =   1.025e-03
                       Mass of water (kg)  =   1.000e+00
                 Total alkalinity (eq/kg)  =  -1.447e-14
                       Total CO2 (mol/kg)  =   1.643e+00
                         Temperature (°C)  =  25.00
                           Pressure (atm)  = 341.10
                  Electrical balance (eq)  =   1.447e-14
 Percent error, 100*(Cat-|An|)/(Cat+|An|)  =   0.00
                               Iterations  =   7
                                  Total H  = 1.110145e+02
                                  Total O  = 5.879304e+01

----------------------------Distribution of species----------------------------

                                               Log       Log       Log    mole V
   Species          Molality    Activity  Molality  Activity     Gamma   cm³/mol

   H+              1.025e-03   9.906e-04    -2.989    -3.004    -0.015      0.00
   OH-             1.375e-11   1.326e-11   -10.862   -10.877    -0.015     -2.96
   H2O             5.551e+01   9.727e-01     1.744    -0.012     0.000     17.80
C(4)          1.643e+00
   CO2             1.562e+00   1.562e+00     0.194     0.194     0.000     34.45
   (CO2)2          4.012e-02   4.012e-02    -1.397    -1.397     0.000     68.06
   HCO3-           1.025e-03   9.894e-04    -2.989    -3.005    -0.015     25.50
   CO3-2           7.881e-11   6.851e-11   -10.103   -10.164    -0.061     -1.86
H(0)          1.125e-17
   H2              5.623e-18   5.624e-18   -17.250   -17.250     0.000     15.20
O(0)          0.000e+00
   O2              0.000e+00   0.000e+00   -58.036   -58.036     0.000     29.94

------------------------------Saturation indices-------------------------------

  Phase               SI** log IAP   log K(298 K, 341 atm)

  CO2(g)            1.87      0.19   -1.68  CO2	 Pressure 341.1 atm, phi 0.217
  H2(g)           -14.06    -17.25   -3.19  H2
  H2O(g)           -1.41     -0.01    1.40  H2O
  O2(g)           -54.96    -58.04   -3.07  O2

**For a gas, SI = log10(fugacity). Fugacity = pressure * phi / 1 atm.
  For ideal gases, phi = 1.

------------------
End of simulation.
------------------

-------------------------------------
Reading input data for simulation 20.
-------------------------------------

		SOLUTION 1
	 temp 25
	 pH 3 charge
	C(4) 1 CO2(g)   2.5576e+00
	pressure   3.6110e+02
	END
-------------------------------------------
Beginning of initial solution calculations.
-------------------------------------------

Initial solution 1.	

-----------------------------Solution composition------------------------------

	Elements           Molality       Moles

	C(4)              1.655e+00   1.655e+00  Equilibrium with CO2(g)

----------------------------Description of solution----------------------------

                                       pH  =   2.998      Charge balance
                                       pe  =   4.000    
      Specific Conductance (µS/cm,  25°C)  = 362
                          Density (g/cm³)  =   1.02743
                               Volume (L)  =   1.04422
                        Viscosity (mPa s)  =   1.00058
                        Activity of water  =   0.973
                 Ionic strength (mol/kgw)  =   1.039e-03
                       Mass of water (kg)  =   1.000e+00
                 Total alkalinity (eq/kg)  =  -1.588e-14
                       Total CO2 (mol/kg)  =   1.655e+00
                         Temperature (°C)  =  25.00
                           Pressure (atm)  = 361.10
                  Electrical balance (eq)  =   1.588e-14
 Percent error, 100*(Cat-|An|)/(Cat+|An|)  =   0.00
                               Iterations  =   7
                                  Total H  = 1.110145e+02
                                  Total O  = 5.881744e+01

----------------------------Distribution of species----------------------------

                                               Log       Log       Log    mole V
   Species          Molality    Activity  Molality  Activity     Gamma   cm³/mol

   H+              1.039e-03   1.004e-03    -2.983    -2.998    -0.015      0.00
   OH-             1.377e-11   1.329e-11   -10.861   -10.877    -0.016     -2.90
   H2O             5.551e+01   9.725e-01     1.744    -0.012     0.000     17.79
C(4)          1.655e+00
   CO2             1.573e+00   1.573e+00     0.197     0.197     0.000     34.43
   (CO2)2          4.071e-02   4.072e-02    -1.390    -1.390     0.000     68.02
   HCO3-           1.039e-03   1.003e-03    -2.983    -2.999    -0.015     25.55
   CO3-2           8.054e-11   6.996e-11   -10.094   -10.155    -0.061     -1.71
H(0)          1.141e-17
   H2              5.707e-18   5.708e-18   -17.244   -17.243     0.000     15.21
O(0)          0.000e+00
   O2              0.000e+00   0.000e+00   -58.058   -58.058     0.000     29.92

------------------------------Saturation indices-------------------------------

  Phase               SI** log IAP   log K(298 K, 361 atm)

  CO2(g)            1.88      0.20   -1.69  CO2	 Pressure 361.1 atm, phi 0.212
  H2(g)           -14.05    -17.24   -3.20  H2
  H2O(g)           -1.40     -0.01    1.39  H2O
  O2(g)           -54.97    -58.06   -3.08  O2

**For a gas, SI = log10(fugacity). Fugacity = pressure * phi / 1 atm.
  For ideal gases, phi = 1.

------------------
End of simulation.
------------------

-------------------------------------
Reading input data for simulation 21.
-------------------------------------

		SOLUTION 1
	 temp 25
	 pH 3 charge
	C(4) 1 CO2(g)   2.5810e+00
	pressure   3.8110e+02
	END
-------------------------------------------
Beginning of initial solution calculations.
-------------------------------------------

Initial solution 1.	

-----------------------------Solution composition------------------------------

	Elements           Molality       Moles

	C(4)              1.667e+00   1.667e+00  Equilibrium with CO2(g)

----------------------------Description of solution----------------------------

                                       pH  =   2.992      Charge balance
                                       pe  =   4.000    
      Specific Conductance (µS/cm,  25°C)  = 367
                          Density (g/cm³)  =   1.02837
                               Volume (L)  =   1.04377
                        Viscosity (mPa s)  =   1.00138
                        Activity of water  =   0.972
                 Ionic strength (mol/kgw)  =   1.053e-03
                       Mass of water (kg)  =   1.000e+00
                 Total alkalinity (eq/kg)  =  -1.733e-14
                       Total CO2 (mol/kg)  =   1.667e+00
                         Temperature (°C)  =  25.00
                           Pressure (atm)  = 381.10
                  Electrical balance (eq)  =   1.733e-14
 Percent error, 100*(Cat-|An|)/(Cat+|An|)  =   0.00
                               Iterations  =   7
                                  Total H  = 1.110145e+02
                                  Total O  = 5.884111e+01

----------------------------Distribution of species----------------------------

                                               Log       Log       Log    mole V
   Species          Molality    Activity  Molality  Activity     Gamma   cm³/mol

   H+              1.053e-03   1.018e-03    -2.977    -2.992    -0.015      0.00
   OH-             1.381e-11   1.332e-11   -10.860   -10.876    -0.016     -2.84
   H2O             5.551e+01   9.723e-01     1.744    -0.012     0.000     17.77
C(4)          1.667e+00
   CO2             1.583e+00   1.584e+00     0.200     0.200     0.000     34.41
   (CO2)2          4.129e-02   4.130e-02    -1.384    -1.384     0.000     67.99
   HCO3-           1.053e-03   1.017e-03    -2.977    -2.993    -0.015     25.60
   CO3-2           8.229e-11   7.143e-11   -10.085   -10.146    -0.061     -1.56
H(0)          1.158e-17
   H2              5.790e-18   5.792e-18   -17.237   -17.237     0.000     15.22
O(0)          0.000e+00
   O2              0.000e+00   0.000e+00   -58.080   -58.080     0.000     29.90

------------------------------Saturation indices-------------------------------

  Phase               SI** log IAP   log K(298 K, 381 atm)

  CO2(g)            1.90      0.20   -1.70  CO2	 Pressure 381.1 atm, phi 0.208
  H2(g)           -14.04    -17.24   -3.20  H2
  H2O(g)           -1.40     -0.01    1.38  H2O
  O2(g)           -54.99    -58.08   -3.09  O2

**For a gas, SI = log10(fugacity). Fugacity = pressure * phi / 1 atm.
  For ideal gases, phi = 1.

------------------
End of simulation.
------------------

-------------------------------------
Reading input data for simulation 22.
-------------------------------------

		SOLUTION 1
	 temp 25
	 pH 3 charge
	C(4) 1 CO2(g)   2.6033e+00
	pressure   4.0110e+02
	END
-------------------------------------------
Beginning of initial solution calculations.
-------------------------------------------

Initial solution 1.	

-----------------------------Solution composition------------------------------

	Elements           Molality       Moles

	C(4)              1.679e+00   1.679e+00  Equilibrium with CO2(g)

----------------------------Description of solution----------------------------

                                       pH  =   2.986      Charge balance
                                       pe  =   4.000    
      Specific Conductance (µS/cm,  25°C)  = 373
                          Density (g/cm³)  =   1.02931
                               Volume (L)  =   1.04331
                        Viscosity (mPa s)  =   1.00219
                        Activity of water  =   0.972
                 Ionic strength (mol/kgw)  =   1.068e-03
                       Mass of water (kg)  =   1.000e+00
                 Total alkalinity (eq/kg)  =  -1.879e-14
                       Total CO2 (mol/kg)  =   1.679e+00
                         Temperature (°C)  =  25.00
                           Pressure (atm)  = 401.10
                  Electrical balance (eq)  =   1.879e-14
 Percent error, 100*(Cat-|An|)/(Cat+|An|)  =   0.00
                               Iterations  =   7
                                  Total H  = 1.110146e+02
                                  Total O  = 5.886449e+01

----------------------------Distribution of species----------------------------

                                               Log       Log       Log    mole V
   Species          Molality    Activity  Molality  Activity     Gamma   cm³/mol

   H+              1.068e-03   1.032e-03    -2.972    -2.986    -0.015      0.00
   OH-             1.384e-11   1.334e-11   -10.859   -10.875    -0.016     -2.78
   H2O             5.551e+01   9.722e-01     1.744    -0.012     0.000     17.76
C(4)          1.679e+00
   CO2             1.594e+00   1.594e+00     0.202     0.203     0.000     34.39
   (CO2)2          4.187e-02   4.188e-02    -1.378    -1.378     0.000     67.95
   HCO3-           1.068e-03   1.030e-03    -2.972    -2.987    -0.015     25.65
   CO3-2           8.407e-11   7.291e-11   -10.075   -10.137    -0.062     -1.42
H(0)          1.175e-17
   H2              5.873e-18   5.875e-18   -17.231   -17.231     0.000     15.23
O(0)          0.000e+00
   O2              0.000e+00   0.000e+00   -58.101   -58.101     0.000     29.87

------------------------------Saturation indices-------------------------------

  Phase               SI** log IAP   log K(298 K, 401 atm)

  CO2(g)            1.91      0.20   -1.71  CO2	 Pressure 401.1 atm, phi 0.205
  H2(g)           -14.02    -17.23   -3.21  H2
  H2O(g)           -1.39     -0.01    1.38  H2O
  O2(g)           -55.00    -58.10   -3.10  O2

**For a gas, SI = log10(fugacity). Fugacity = pressure * phi / 1 atm.
  For ideal gases, phi = 1.

------------------
End of simulation.
------------------

-------------------------------------
Reading input data for simulation 23.
-------------------------------------

		SOLUTION 1
	 temp 25
	 pH 3 charge
	C(4) 1 CO2(g)   2.6244e+00
	pressure   4.2110e+02
	END
-------------------------------------------
Beginning of initial solution calculations.
-------------------------------------------

Initial solution 1.	

-----------------------------Solution composition------------------------------

	Elements           Molality       Moles

	C(4)              1.690e+00   1.690e+00  Equilibrium with CO2(g)

----------------------------Description of solution----------------------------

                                       pH  =   2.981      Charge balance
                                       pe  =   4.000    
      Specific Conductance (µS/cm,  25°C)  = 378
                          Density (g/cm³)  =   1.03025
                               Volume (L)  =   1.04284
                        Viscosity (mPa s)  =   1.00296
                        Activity of water  =   0.972
                 Ionic strength (mol/kgw)  =   1.082e-03
                       Mass of water (kg)  =   1.000e+00
                 Total alkalinity (eq/kg)  =  -2.021e-14
                       Total CO2 (mol/kg)  =   1.690e+00
                         Temperature (°C)  =  25.00
                           Pressure (atm)  = 421.10
                  Electrical balance (eq)  =   2.021e-14
 Percent error, 100*(Cat-|An|)/(Cat+|An|)  =   0.00
                               Iterations  =   7
                                  Total H  = 1.110146e+02
                                  Total O  = 5.888644e+01

----------------------------Distribution of species----------------------------

                                               Log       Log       Log    mole V
   Species          Molality    Activity  Molality  Activity     Gamma   cm³/mol

   H+              1.082e-03   1.045e-03    -2.966    -2.981    -0.015      0.00
   OH-             1.387e-11   1.337e-11   -10.858   -10.874    -0.016     -2.72
   H2O             5.551e+01   9.720e-01     1.744    -0.012     0.000     17.74
C(4)          1.690e+00
   CO2             1.604e+00   1.604e+00     0.205     0.205     0.000     34.38
   (CO2)2          4.242e-02   4.243e-02    -1.372    -1.372     0.000     67.91
   HCO3-           1.082e-03   1.044e-03    -2.966    -2.981    -0.016     25.69
   CO3-2           8.587e-11   7.442e-11   -10.066   -10.128    -0.062     -1.27
H(0)          1.191e-17
   H2              5.954e-18   5.955e-18   -17.225   -17.225     0.000     15.24
O(0)          0.000e+00
   O2              0.000e+00   0.000e+00   -58.122   -58.122     0.000     29.85

------------------------------Saturation indices-------------------------------

  Phase               SI** log IAP   log K(298 K, 421 atm)

  CO2(g)            1.93      0.21   -1.72  CO2	 Pressure 421.1 atm, phi 0.202
  H2(g)           -14.01    -17.23   -3.21  H2
  H2O(g)           -1.38     -0.01    1.37  H2O
  O2(g)           -55.01    -58.12   -3.11  O2

**For a gas, SI = log10(fugacity). Fugacity = pressure * phi / 1 atm.
  For ideal gases, phi = 1.

------------------
End of simulation.
------------------

-------------------------------------
Reading input data for simulation 24.
-------------------------------------

		SOLUTION 1
	 temp 25
	 pH 3 charge
	C(4) 1 CO2(g)   2.6445e+00
	pressure   4.4110e+02
	END
-------------------------------------------
Beginning of initial solution calculations.
-------------------------------------------

Initial solution 1.	

-----------------------------Solution composition------------------------------

	Elements           Molality       Moles

	C(4)              1.700e+00   1.700e+00  Equilibrium with CO2(g)

----------------------------Description of solution----------------------------

                                       pH  =   2.975      Charge balance
                                       pe  =   4.000    
      Specific Conductance (µS/cm,  25°C)  = 383
                          Density (g/cm³)  =   1.03117
                               Volume (L)  =   1.04235
                        Viscosity (mPa s)  =   1.00372
                        Activity of water  =   0.972
                 Ionic strength (mol/kgw)  =   1.096e-03
                       Mass of water (kg)  =   1.000e+00
                 Total alkalinity (eq/kg)  =  -2.158e-14
                       Total CO2 (mol/kg)  =   1.700e+00
                         Temperature (°C)  =  25.00
                           Pressure (atm)  = 441.10
                  Electrical balance (eq)  =   2.158e-14
 Percent error, 100*(Cat-|An|)/(Cat+|An|)  =   0.00
                               Iterations  =   7
                                  Total H  = 1.110146e+02
                                  Total O  = 5.890752e+01

----------------------------Distribution of species----------------------------

                                               Log       Log       Log    mole V
   Species          Molality    Activity  Molality  Activity     Gamma   cm³/mol

   H+              1.096e-03   1.059e-03    -2.960    -2.975    -0.015      0.00
   OH-             1.390e-11   1.340e-11   -10.857   -10.873    -0.016     -2.66
   H2O             5.551e+01   9.718e-01     1.744    -0.012     0.000     17.73
C(4)          1.700e+00
   CO2             1.613e+00   1.613e+00     0.208     0.208     0.000     34.36
   (CO2)2          4.295e-02   4.296e-02    -1.367    -1.367     0.000     67.88
   HCO3-           1.096e-03   1.058e-03    -2.960    -2.976    -0.016     25.74
   CO3-2           8.771e-11   7.595e-11   -10.057   -10.119    -0.062     -1.13
H(0)          1.207e-17
   H2              6.033e-18   6.035e-18   -17.219   -17.219     0.000     15.25
O(0)          0.000e+00
   O2              0.000e+00   0.000e+00   -58.143   -58.143     0.000     29.83

------------------------------Saturation indices-------------------------------

  Phase               SI** log IAP   log K(298 K, 441 atm)

  CO2(g)            1.94      0.21   -1.74  CO2	 Pressure 441.1 atm, phi 0.199
  H2(g)           -14.00    -17.22   -3.22  H2
  H2O(g)           -1.38     -0.01    1.36  H2O
  O2(g)           -55.02    -58.14   -3.13  O2

**For a gas, SI = log10(fugacity). Fugacity = pressure * phi / 1 atm.
  For ideal gases, phi = 1.

------------------
End of simulation.
------------------

-------------------------------------
Reading input data for simulation 25.
-------------------------------------

		SOLUTION 1
	 temp 25
	 pH 3 charge
	C(4) 1 CO2(g)   2.6638e+00
	pressure   4.6110e+02
	END
-------------------------------------------
Beginning of initial solution calculations.
-------------------------------------------

Initial solution 1.	

-----------------------------Solution composition------------------------------

	Elements           Molality       Moles

	C(4)              1.711e+00   1.711e+00  Equilibrium with CO2(g)

----------------------------Description of solution----------------------------

                                       pH  =   2.970      Charge balance
                                       pe  =   4.000    
      Specific Conductance (µS/cm,  25°C)  = 389
                          Density (g/cm³)  =   1.03209
                               Volume (L)  =   1.04187
                        Viscosity (mPa s)  =   1.00449
                        Activity of water  =   0.972
                 Ionic strength (mol/kgw)  =   1.111e-03
                       Mass of water (kg)  =   1.000e+00
                 Total alkalinity (eq/kg)  =  -2.292e-14
                       Total CO2 (mol/kg)  =   1.711e+00
                         Temperature (°C)  =  25.00
                           Pressure (atm)  = 461.10
                  Electrical balance (eq)  =   2.292e-14
 Percent error, 100*(Cat-|An|)/(Cat+|An|)  =   0.00
                               Iterations  =   7
                                  Total H  = 1.110147e+02
                                  Total O  = 5.892849e+01

----------------------------Distribution of species----------------------------

                                               Log       Log       Log    mole V
   Species          Molality    Activity  Molality  Activity     Gamma   cm³/mol

   H+              1.111e-03   1.073e-03    -2.954    -2.970    -0.015      0.00
   OH-             1.394e-11   1.343e-11   -10.856   -10.872    -0.016     -2.60
   H2O             5.551e+01   9.716e-01     1.744    -0.012     0.000     17.71
C(4)          1.711e+00
   CO2             1.623e+00   1.623e+00     0.210     0.210     0.000     34.34
   (CO2)2          4.348e-02   4.349e-02    -1.362    -1.362     0.000     67.84
   HCO3-           1.111e-03   1.071e-03    -2.954    -2.970    -0.016     25.79
[...]

  Phase               SI** log IAP   log K(373 K, 381 atm)

  CO2(g)            2.27      0.08   -2.18  CO2	 Pressure 381.1 atm, phi 0.486
  H2(g)           -14.51    -17.69   -3.18  H2
  H2O(g)            0.08     -0.01   -0.09  H2O
  O2(g)           -34.90    -38.19   -3.29  O2

**For a gas, SI = log10(fugacity). Fugacity = pressure * phi / 1 atm.
  For ideal gases, phi = 1.

------------------
End of simulation.
------------------

--------------------------------------
Reading input data for simulation 106.
--------------------------------------

		SOLUTION 1
	 temp 100
	 pH 3 charge
	C(4) 1 CO2(g)   2.6033e+00
	pressure   4.0110e+02
	END
-------------------------------------------
Beginning of initial solution calculations.
-------------------------------------------

Initial solution 1.	

-----------------------------Solution composition------------------------------

	Elements           Molality       Moles

	C(4)              1.502e+00   1.502e+00  Equilibrium with CO2(g)

----------------------------Description of solution----------------------------

                                       pH  =   3.087      Charge balance
                                       pe  =   4.000    
      Specific Conductance (µS/cm, 100°C)  = 544
                          Density (g/cm³)  =   0.98622
                               Volume (L)  =   1.08101
                        Viscosity (mPa s)  =   0.29948
                        Activity of water  =   0.977
                 Ionic strength (mol/kgw)  =   8.487e-04
                       Mass of water (kg)  =   1.000e+00
                 Total alkalinity (eq/kg)  =  -8.634e-15
                       Total CO2 (mol/kg)  =   1.502e+00
                         Temperature (°C)  = 100.00
                           Pressure (atm)  = 401.10
                  Electrical balance (eq)  =   8.634e-15
 Percent error, 100*(Cat-|An|)/(Cat+|An|)  =   0.00
                               Iterations  =   7
                                  Total H  = 1.110141e+02
                                  Total O  = 5.851069e+01

----------------------------Distribution of species----------------------------

                                               Log       Log       Log    mole V
   Species          Molality    Activity  Molality  Activity     Gamma   cm³/mol

   H+              8.487e-04   8.187e-04    -3.071    -3.087    -0.016      0.00
   OH-             1.004e-09   9.668e-10    -8.998    -9.015    -0.016     -7.45
   H2O             5.551e+01   9.768e-01     1.744    -0.010     0.000     18.45
C(4)          1.502e+00
   CO2             1.229e+00   1.229e+00     0.090     0.090     0.000     37.96
   (CO2)2          1.360e-01   1.360e-01    -0.867    -0.866     0.000     75.08
   HCO3-           8.487e-04   8.177e-04    -3.071    -3.087    -0.016     25.93
   CO3-2           1.191e-10   1.027e-10    -9.924    -9.989    -0.065     -3.54
H(0)          4.140e-18
   H2              2.070e-18   2.071e-18   -17.684   -17.684     0.000     17.80
O(0)          1.222e-38
   O2              6.109e-39   6.110e-39   -38.214   -38.214     0.000     32.72

------------------------------Saturation indices-------------------------------

  Phase               SI** log IAP   log K(373 K, 401 atm)

  CO2(g)            2.28      0.09   -2.19  CO2	 Pressure 401.1 atm, phi 0.480
  H2(g)           -14.50    -17.68   -3.19  H2
  H2O(g)            0.09     -0.01   -0.10  H2O
  O2(g)           -34.91    -38.21   -3.30  O2

**For a gas, SI = log10(fugacity). Fugacity = pressure * phi / 1 atm.
  For ideal gases, phi = 1.

------------------
End of simulation.
------------------

--------------------------------------
Reading input data for simulation 107.
--------------------------------------

		SOLUTION 1
	 temp 100
	 pH 3 charge
	C(4) 1 CO2(g)   2.6244e+00
	pressure   4.2110e+02
	END
-------------------------------------------
Beginning of initial solution calculations.
-------------------------------------------

Initial solution 1.	

-----------------------------Solution composition------------------------------

	Elements           Molality       Moles

	C(4)              1.525e+00   1.525e+00  Equilibrium with CO2(g)

----------------------------Description of solution----------------------------

                                       pH  =   3.080      Charge balance
                                       pe  =   4.000    
      Specific Conductance (µS/cm, 100°C)  = 552
                          Density (g/cm³)  =   0.98725
                               Volume (L)  =   1.08093
                        Viscosity (mPa s)  =   0.30014
                        Activity of water  =   0.976
                 Ionic strength (mol/kgw)  =   8.620e-04
                       Mass of water (kg)  =   1.000e+00
                 Total alkalinity (eq/kg)  =  -1.014e-14
                       Total CO2 (mol/kg)  =   1.525e+00
                         Temperature (°C)  = 100.00
                           Pressure (atm)  = 421.10
                  Electrical balance (eq)  =   1.014e-14
 Percent error, 100*(Cat-|An|)/(Cat+|An|)  =   0.00
                               Iterations  =   7
                                  Total H  = 1.110142e+02
                                  Total O  = 5.855776e+01

----------------------------Distribution of species----------------------------

                                               Log       Log       Log    mole V
   Species          Molality    Activity  Molality  Activity     Gamma   cm³/mol

   H+              8.620e-04   8.314e-04    -3.065    -3.080    -0.016      0.00
   OH-             1.006e-09   9.687e-10    -8.997    -9.014    -0.017     -7.52
   H2O             5.551e+01   9.764e-01     1.744    -0.010     0.000     18.43
C(4)          1.525e+00
   CO2             1.245e+00   1.245e+00     0.095     0.095     0.000     37.91
   (CO2)2          1.397e-01   1.397e-01    -0.855    -0.855     0.000     74.98
   HCO3-           8.620e-04   8.303e-04    -3.065    -3.081    -0.016     26.01
   CO3-2           1.214e-10   1.045e-10    -9.916    -9.981    -0.065     -3.34
H(0)          4.222e-18
   H2              2.111e-18   2.111e-18   -17.676   -17.675     0.000     17.77
O(0)          1.152e-38
   O2              5.758e-39   5.759e-39   -38.240   -38.240     0.000     32.67

------------------------------Saturation indices-------------------------------

  Phase               SI** log IAP   log K(373 K, 421 atm)

  CO2(g)            2.30      0.10   -2.21  CO2	 Pressure 421.1 atm, phi 0.474
  H2(g)           -14.48    -17.68   -3.19  H2
  H2O(g)            0.09     -0.01   -0.10  H2O
  O2(g)           -34.93    -38.24   -3.31  O2

**For a gas, SI = log10(fugacity). Fugacity = pressure * phi / 1 atm.
  For ideal gases, phi = 1.

------------------
End of simulation.
------------------

--------------------------------------
Reading input data for simulation 108.
--------------------------------------

		SOLUTION 1
	 temp 100
	 pH 3 charge
	C(4) 1 CO2(g)   2.6445e+00
	pressure   4.4110e+02
	END
-------------------------------------------
Beginning of initial solution calculations.
-------------------------------------------

Initial solution 1.	

-----------------------------Solution composition------------------------------

	Elements           Molality       Moles

	C(4)              1.548e+00   1.548e+00  Equilibrium with CO2(g)

----------------------------Description of solution----------------------------

                                       pH  =   3.074      Charge balance
                                       pe  =   4.000    
      Specific Conductance (µS/cm, 100°C)  = 559
                          Density (g/cm³)  =   0.98826
                               Volume (L)  =   1.08082
                        Viscosity (mPa s)  =   0.30079
                        Activity of water  =   0.976
                 Ionic strength (mol/kgw)  =   8.751e-04
                       Mass of water (kg)  =   1.000e+00
                 Total alkalinity (eq/kg)  =  -1.177e-14
                       Total CO2 (mol/kg)  =   1.548e+00
                         Temperature (°C)  = 100.00
                           Pressure (atm)  = 441.10
                  Electrical balance (eq)  =   1.177e-14
 Percent error, 100*(Cat-|An|)/(Cat+|An|)  =   0.00
                               Iterations  =   7
                                  Total H  = 1.110142e+02
                                  Total O  = 5.860276e+01

----------------------------Distribution of species----------------------------

                                               Log       Log       Log    mole V
   Species          Molality    Activity  Molality  Activity     Gamma   cm³/mol

   H+              8.751e-04   8.438e-04    -3.058    -3.074    -0.016      0.00
   OH-             1.009e-09   9.710e-10    -8.996    -9.013    -0.017     -7.58
   H2O             5.551e+01   9.761e-01     1.744    -0.011     0.000     18.42
C(4)          1.548e+00
   CO2             1.261e+00   1.261e+00     0.101     0.101     0.000     37.86
   (CO2)2          1.432e-01   1.432e-01    -0.844    -0.844     0.000     74.88
   HCO3-           8.751e-04   8.428e-04    -3.058    -3.074    -0.016     26.08
   CO3-2           1.236e-10   1.063e-10    -9.908    -9.973    -0.065     -3.15
H(0)          4.300e-18
   H2              2.150e-18   2.151e-18   -17.668   -17.667     0.000     17.75
O(0)          1.088e-38
   O2              5.438e-39   5.439e-39   -38.265   -38.264     0.000     32.62

------------------------------Saturation indices-------------------------------

  Phase               SI** log IAP   log K(373 K, 441 atm)

  CO2(g)            2.32      0.10   -2.22  CO2	 Pressure 441.1 atm, phi 0.469
  H2(g)           -14.47    -17.67   -3.20  H2
  H2O(g)            0.10     -0.01   -0.11  H2O
  O2(g)           -34.95    -38.26   -3.32  O2

**For a gas, SI = log10(fugacity). Fugacity = pressure * phi / 1 atm.
  For ideal gases, phi = 1.

------------------
End of simulation.
------------------

--------------------------------------
Reading input data for simulation 109.
--------------------------------------

		SOLUTION 1
	 temp 100
	 pH 3 charge
	C(4) 1 CO2(g)   2.6638e+00
	pressure   4.6110e+02
	END
-------------------------------------------
Beginning of initial solution calculations.
-------------------------------------------

Initial solution 1.	

-----------------------------Solution composition------------------------------

	Elements           Molality       Moles

	C(4)              1.570e+00   1.570e+00  Equilibrium with CO2(g)

----------------------------Description of solution----------------------------

                                       pH  =   3.067      Charge balance
                                       pe  =   4.000    
      Specific Conductance (µS/cm, 100°C)  = 567
                          Density (g/cm³)  =   0.98928
                               Volume (L)  =   1.08069
                        Viscosity (mPa s)  =   0.30144
                        Activity of water  =   0.976
                 Ionic strength (mol/kgw)  =   8.881e-04
                       Mass of water (kg)  =   1.000e+00
                 Total alkalinity (eq/kg)  =  -1.355e-14
                       Total CO2 (mol/kg)  =   1.570e+00
                         Temperature (°C)  = 100.00
                           Pressure (atm)  = 461.10
                  Electrical balance (eq)  =   1.355e-14
 Percent error, 100*(Cat-|An|)/(Cat+|An|)  =   0.00
                               Iterations  =   7
                                  Total H  = 1.110142e+02
                                  Total O  = 5.864665e+01

----------------------------Distribution of species----------------------------

                                               Log       Log       Log    mole V
   Species          Molality    Activity  Molality  Activity     Gamma   cm³/mol

   H+              8.881e-04   8.562e-04    -3.052    -3.067    -0.016      0.00
   OH-             1.012e-09   9.737e-10    -8.995    -9.012    -0.017     -7.65
   H2O             5.551e+01   9.758e-01     1.744    -0.011     0.000     18.40
C(4)          1.570e+00
   CO2             1.275e+00   1.276e+00     0.106     0.106     0.000     37.81
   (CO2)2          1.467e-01   1.467e-01    -0.834    -0.834     0.000     74.78
   HCO3-           8.881e-04   8.552e-04    -3.052    -3.068    -0.016     26.15
   CO3-2           1.259e-10   1.082e-10    -9.900    -9.966    -0.066     -2.96
H(0)          4.378e-18
   H2              2.189e-18   2.189e-18   -17.660   -17.660     0.000     17.73
O(0)          1.028e-38
   O2              5.142e-39   5.143e-39   -38.289   -38.289     0.000     32.57

------------------------------Saturation indices-------------------------------

  Phase               SI** log IAP   log K(373 K, 461 atm)

  CO2(g)            2.33      0.11   -2.23  CO2	 Pressure 461.1 atm, phi 0.465
  H2(g)           -14.46    -17.66   -3.20  H2
  H2O(g)            0.10     -0.01   -0.12  H2O
  O2(g)           -34.96    -38.29   -3.33  O2

**For a gas, SI = log10(fugacity). Fugacity = pressure * phi / 1 atm.
  For ideal gases, phi = 1.

------------------
End of simulation.
------------------

--------------------------------------
Reading input data for simulation 110.
--------------------------------------

		SOLUTION 1
	 temp 100
	 pH 3 charge
	C(4) 1 CO2(g)   2.6822e+00
	pressure   4.8110e+02
	END
-------------------------------------------
Beginning of initial solution calculations.
-------------------------------------------

Initial solution 1.	

-----------------------------Solution composition------------------------------

	Elements           Molality       Moles

	C(4)              1.591e+00   1.591e+00  Equilibrium with CO2(g)

----------------------------Description of solution----------------------------

                                       pH  =   3.061      Charge balance
                                       pe  =   4.000    
      Specific Conductance (µS/cm, 100°C)  = 574
                          Density (g/cm³)  =   0.99028
                               Volume (L)  =   1.08053
                        Viscosity (mPa s)  =   0.30208
                        Activity of water  =   0.975
                 Ionic strength (mol/kgw)  =   9.009e-04
                       Mass of water (kg)  =   1.000e+00
                 Total alkalinity (eq/kg)  =  -1.543e-14
                       Total CO2 (mol/kg)  =   1.591e+00
                         Temperature (°C)  = 100.00
                           Pressure (atm)  = 481.10
                  Electrical balance (eq)  =   1.543e-14
 Percent error, 100*(Cat-|An|)/(Cat+|An|)  =   0.00
                               Iterations  =   7
                                  Total H  = 1.110142e+02
                                  Total O  = 5.868838e+01

----------------------------Distribution of species----------------------------

                                               Log       Log       Log    mole V
   Species          Molality    Activity  Molality  Activity     Gamma   cm³/mol

   H+              9.009e-04   8.684e-04    -3.045    -3.061    -0.016      0.00
   OH-             1.016e-09   9.770e-10    -8.993    -9.010    -0.017     -7.71
   H2O             5.551e+01   9.755e-01     1.744    -0.011     0.000     18.39
C(4)          1.591e+00
   CO2             1.290e+00   1.290e+00     0.110     0.111     0.000     37.76
   (CO2)2          1.501e-01   1.501e-01    -0.824    -0.824     0.000     74.68
   HCO3-           9.009e-04   8.673e-04    -3.045    -3.062    -0.017     26.22
   CO3-2           1.281e-10   1.101e-10    -9.892    -9.958    -0.066     -2.77
H(0)          4.453e-18
   H2              2.227e-18   2.227e-18   -17.652   -17.652     0.000     17.71
O(0)          9.743e-39
   O2              4.872e-39   4.873e-39   -38.312   -38.312     0.000     32.52

------------------------------Saturation indices-------------------------------

  Phase               SI** log IAP   log K(373 K, 481 atm)

  CO2(g)            2.35      0.11   -2.24  CO2	 Pressure 481.1 atm, phi 0.462
  H2(g)           -14.45    -17.65   -3.21  H2
  H2O(g)            0.11     -0.01   -0.12  H2O
  O2(g)           -34.98    -38.31   -3.34  O2

**For a gas, SI = log10(fugacity). Fugacity = pressure * phi / 1 atm.
  For ideal gases, phi = 1.

------------------
End of simulation.
------------------

--------------------------------------
Reading input data for simulation 111.
--------------------------------------

		SOLUTION 1
	 temp 100
	 pH 3 charge
	C(4) 1 CO2(g)   2.6999e+00
	pressure   5.0110e+02
	END
-------------------------------------------
Beginning of initial solution calculations.
-------------------------------------------

Initial solution 1.	

-----------------------------Solution composition------------------------------

	Elements           Molality       Moles

	C(4)              1.611e+00   1.611e+00  Equilibrium with CO2(g)

----------------------------Description of solution----------------------------

                                       pH  =   3.055      Charge balance
                                       pe  =   4.000    
      Specific Conductance (µS/cm, 100°C)  = 581
                          Density (g/cm³)  =   0.99127
                               Volume (L)  =   1.08034
                        Viscosity (mPa s)  =   0.30272
                        Activity of water  =   0.975
                 Ionic strength (mol/kgw)  =   9.137e-04
                       Mass of water (kg)  =   1.000e+00
                 Total alkalinity (eq/kg)  =  -1.742e-14
                       Total CO2 (mol/kg)  =   1.611e+00
                         Temperature (°C)  = 100.00
                           Pressure (atm)  = 501.10
                  Electrical balance (eq)  =   1.742e-14
 Percent error, 100*(Cat-|An|)/(Cat+|An|)  =   0.00
                               Iterations  =   7
                                  Total H  = 1.110143e+02
                                  Total O  = 5.872903e+01

----------------------------Distribution of species----------------------------

                                               Log       Log       Log    mole V
   Species          Molality    Activity  Molality  Activity     Gamma   cm³/mol

   H+              9.137e-04   8.805e-04    -3.039    -3.055    -0.016      0.00
   OH-             1.020e-09   9.806e-10    -8.992    -9.009    -0.017     -7.77
   H2O             5.551e+01   9.752e-01     1.744    -0.011     0.000     18.37
C(4)          1.611e+00
   CO2             1.303e+00   1.304e+00     0.115     0.115     0.000     37.71
   (CO2)2          1.533e-01   1.534e-01    -0.814    -0.814     0.000     74.58
   HCO3-           9.137e-04   8.794e-04    -3.039    -3.056    -0.017     26.29
   CO3-2           1.305e-10   1.119e-10    -9.885    -9.951    -0.066     -2.58
H(0)          4.527e-18
   H2              2.263e-18   2.264e-18   -17.645   -17.645     0.000     17.69
O(0)          9.242e-39
   O2              4.621e-39   4.622e-39   -38.335   -38.335     0.000     32.48

------------------------------Saturation indices-------------------------------

  Phase               SI** log IAP   log K(373 K, 501 atm)

  CO2(g)            2.36      0.12   -2.25  CO2	 Pressure 501.1 atm, phi 0.459
  H2(g)           -14.43    -17.65   -3.21  H2
  H2O(g)            0.11     -0.01   -0.13  H2O
  O2(g)           -34.99    -38.34   -3.34  O2

**For a gas, SI = log10(fugacity). Fugacity = pressure * phi / 1 atm.
  For ideal gases, phi = 1.

------------------
End of simulation.
------------------

--------------------------------------
Reading input data for simulation 112.
--------------------------------------

	END
------------------
End of simulation.
------------------

--------------------------------------
Reading input data for simulation 113.
--------------------------------------

