WARNING: Database file from DATABASE keyword is used; command line argument ignored.
   Input file: CO2_conc_PR_EQ
  Output file: CO2_conc_PR_EQ.out
Database file: ../database/phreeqc.dat

------------------
Reading data base.
------------------

	SOLUTION_MASTER_SPECIES
	SOLUTION_SPECIES
	PHASES
	GAS_BINARY_PARAMETERS
	EXCHANGE_MASTER_SPECIES
	EXCHANGE_SPECIES
	SURFACE_MASTER_SPECIES
	SURFACE_SPECIES
	MEAN_GAMMAS
	RATES
	END
------------------------------------
Reading input data for simulation 1.
------------------------------------

	DATABASE ../database/phreeqc.dat
	SELECTED_OUTPUT 101
	    file                 CO2_conc_PR_EQ_101.sel
	USER_PUNCH 101
	    headings Mu SC
	    start
	10 PUNCH STR_F$(MU, 20, 12)
	20 PUNCH STR_F$(SC, 20, 10)
	    end
	SOLUTION 1
	SELECTED_OUTPUT
	 reset false
	 file CO2_conc_PR_EQ.sel
	USER_PUNCH
	  1 sc$ = chr$(59)
	 10 for i = 1.1 to 520 step 20
	 20   punch 'SOLUTION 1' + sc$ + ' -temp 25' + sc$ + '-pressure ' + str$(i) + EOL$ + 'EQUILIBRIUM_PHASES' + sc$ + ' CO2(g) ' + str$(log10(i)) + EOL$ + 'END' + EOL$
	 30 next i
	END
-------------------------------------------
Beginning of initial solution calculations.
-------------------------------------------

Initial solution 1.	

WARNING: USER_PUNCH: Headings count does not match number of calls to PUNCH.

-----------------------------Solution composition------------------------------

	Elements           Molality       Moles

	Pure water     

----------------------------Description of solution----------------------------

                                       pH  =   7.000    
                                       pe  =   4.000    
      Specific Conductance (µS/cm,  25°C)  = 0
                          Density (g/cm³)  =   0.99704
                               Volume (L)  =   1.00297
                        Viscosity (mPa s)  =   0.89002
                        Activity of water  =   1.000
                 Ionic strength (mol/kgw)  =   1.007e-07
                       Mass of water (kg)  =   1.000e+00
                 Total alkalinity (eq/kg)  =   1.217e-09
                         Temperature (°C)  =  25.00
                  Electrical balance (eq)  =  -1.217e-09
 Percent error, 100*(Cat-|An|)/(Cat+|An|)  =  -0.60
                               Iterations  =   0
                                  Total H  = 1.110124e+02
                                  Total O  = 5.550622e+01

----------------------------Distribution of species----------------------------

                                               Log       Log       Log    mole V
   Species          Molality    Activity  Molality  Activity     Gamma   cm³/mol

   OH-             1.013e-07   1.012e-07    -6.995    -6.995    -0.000     -4.14
   H+              1.001e-07   1.000e-07    -7.000    -7.000    -0.000      0.00
   H2O             5.551e+01   1.000e+00     1.744     0.000     0.000     18.07
H(0)          1.416e-25
   H2              7.079e-26   7.079e-26   -25.150   -25.150     0.000     14.99
O(0)          0.000e+00
   O2              0.000e+00   0.000e+00   -42.063   -42.063     0.000     30.40

------------------------------Saturation indices-------------------------------

  Phase               SI** log IAP   log K(298 K,   1 atm)

  H2(g)           -22.05    -25.15   -3.10  H2
  H2O(g)           -1.50      0.00    1.50  H2O
  O2(g)           -39.17    -42.06   -2.89  O2

**For a gas, SI = log10(fugacity). Fugacity = pressure * phi / 1 atm.
  For ideal gases, phi = 1.

------------------
End of simulation.
------------------

------------------------------------
Reading input data for simulation 2.
------------------------------------

	SELECTED_OUTPUT
	 active false
	USER_GRAPH
	 -chart_title "Using: EQUILIBRIUM_PHASES"
	 -plot_csv_file co2.dat
	 -axis_titles "Pressure / atm" "CO2 / (mol/kgw)"
	 -axis_scale x_axis 0 500
	 -axis_scale y_axis 0 2
	 10 x = PR_P("CO2(g)")
	 20 graph_x x # tot("Na")
	 30 graph_y tot("C(4)")
	 -end

	Reading data from CO2_conc_PR_EQ.sel ...
	SOLUTION 1
	 temp 25
	pressure   1.1000e+00
	EQUILIBRIUM_PHASES
	 CO2(g)   4.1393e-02
	END
-------------------------------------------
Beginning of initial solution calculations.
-------------------------------------------

Initial solution 1.	

-----------------------------Solution composition------------------------------

	Elements           Molality       Moles

	Pure water     

----------------------------Description of solution----------------------------

                                       pH  =   7.000    
                                       pe  =   4.000    
      Specific Conductance (µS/cm,  25°C)  = 0
                          Density (g/cm³)  =   0.99705
                               Volume (L)  =   1.00296
                        Viscosity (mPa s)  =   0.89002
                        Activity of water  =   1.000
                 Ionic strength (mol/kgw)  =   1.007e-07
                       Mass of water (kg)  =   1.000e+00
                 Total alkalinity (eq/kg)  =   1.226e-09
                         Temperature (°C)  =  25.00
                           Pressure (atm)  =  1.10
                  Electrical balance (eq)  =  -1.226e-09
 Percent error, 100*(Cat-|An|)/(Cat+|An|)  =  -0.61
                               Iterations  =   0
                                  Total H  = 1.110124e+02
                                  Total O  = 5.550622e+01

----------------------------Distribution of species----------------------------

                                               Log       Log       Log    mole V
   Species          Molality    Activity  Molality  Activity     Gamma   cm³/mol

   OH-             1.013e-07   1.012e-07    -6.994    -6.995    -0.000     -4.14
   H+              1.001e-07   1.000e-07    -7.000    -7.000    -0.000      0.00
   H2O             5.551e+01   1.000e+00     1.744     0.000     0.000     18.07
H(0)          1.416e-25
   H2              7.079e-26   7.079e-26   -25.150   -25.150     0.000     14.99
O(0)          0.000e+00
   O2              0.000e+00   0.000e+00   -42.063   -42.063     0.000     30.40

------------------------------Saturation indices-------------------------------

  Phase               SI** log IAP   log K(298 K,   1 atm)

  H2(g)           -22.05    -25.15   -3.10  H2
  H2O(g)           -1.50      0.00    1.50  H2O
  O2(g)           -39.17    -42.06   -2.89  O2

**For a gas, SI = log10(fugacity). Fugacity = pressure * phi / 1 atm.
  For ideal gases, phi = 1.

-----------------------------------------
Beginning of batch-reaction calculations.
-----------------------------------------

Reaction step 1.

Using solution 1.	
Using pure phase assemblage 1.	

-------------------------------Phase assemblage--------------------------------

                                                      Moles in assemblage
Phase               SI  log IAP  log K(T, P)   Initial       Final       Delta

CO2(g)            0.04    -1.43     -1.47    1.000e+01   9.963e+00  -3.737e-02

-----------------------------Solution composition------------------------------

	Elements           Molality       Moles

	C                 3.737e-02   3.737e-02

----------------------------Description of solution----------------------------

                                       pH  =   3.891      Charge balance
                                       pe  =   1.619      Adjusted to redox equilibrium
      Specific Conductance (µS/cm,  25°C)  = 50
                          Density (g/cm³)  =   0.99740
                               Volume (L)  =   1.00426
                        Viscosity (mPa s)  =   0.89263
                        Activity of water  =   0.999
                 Ionic strength (mol/kgw)  =   1.303e-04
                       Mass of water (kg)  =   1.000e+00
                 Total alkalinity (eq/kg)  =   1.226e-09
                       Total CO2 (mol/kg)  =   3.737e-02
                         Temperature (°C)  =  25.00
                           Pressure (atm)  =  1.10
                  Electrical balance (eq)  =  -1.226e-09
 Percent error, 100*(Cat-|An|)/(Cat+|An|)  =  -0.00
                               Iterations  =  14
                                  Total H  = 1.110124e+02
                                  Total O  = 5.558096e+01

----------------------------Distribution of species----------------------------

                                               Log       Log       Log    mole V
   Species          Molality    Activity  Molality  Activity     Gamma   cm³/mol

   H+              1.303e-04   1.286e-04    -3.885    -3.891    -0.006      0.00
   OH-             7.971e-11   7.866e-11   -10.098   -10.104    -0.006     -4.13
   H2O             5.551e+01   9.994e-01     1.744    -0.000     0.000     18.07
C(-4)         7.590e-22
   CH4             7.590e-22   7.590e-22   -21.120   -21.120     0.000     35.46
C(4)          3.737e-02
   CO2             3.720e-02   3.720e-02    -1.429    -1.429     0.000     34.79
   HCO3-           1.303e-04   1.286e-04    -3.885    -3.891    -0.006     24.53
   (CO2)2          2.249e-05   2.249e-05    -4.648    -4.648     0.000     68.75
   CO3-2           4.943e-11   4.690e-11   -10.306   -10.329    -0.023     -4.76
H(0)          1.351e-14
   H2              6.756e-15   6.756e-15   -14.170   -14.170     0.000     14.99
O(0)          0.000e+00
   O2              0.000e+00   0.000e+00   -64.023   -64.023     0.000     30.40

------------------------------Saturation indices-------------------------------

  Phase               SI** log IAP   log K(298 K,   1 atm)

  CH4(g)          -18.32    -21.12   -2.80  CH4
  CO2(g)            0.04     -1.43   -1.47  CO2	 Pressure   1.1 atm, phi 0.994
  H2(g)           -11.07    -14.17   -3.10  H2
  H2O(g)           -1.50     -0.00    1.50  H2O
  O2(g)           -61.13    -64.02   -2.89  O2

**For a gas, SI = log10(fugacity). Fugacity = pressure * phi / 1 atm.
  For ideal gases, phi = 1.

------------------
End of simulation.
------------------

------------------------------------
Reading input data for simulation 3.
------------------------------------

		SOLUTION 1
	 temp 25
	pressure   2.1100e+01
	EQUILIBRIUM_PHASES
	 CO2(g)   1.3243e+00
	END
-------------------------------------------
Beginning of initial solution calculations.
-------------------------------------------

Initial solution 1.	

-----------------------------Solution composition------------------------------

	Elements           Molality       Moles

	Pure water     

----------------------------Description of solution----------------------------

                                       pH  =   7.000    
                                       pe  =   4.000    
      Specific Conductance (µS/cm,  25°C)  = 0
                          Density (g/cm³)  =   0.99795
                               Volume (L)  =   1.00206
                        Viscosity (mPa s)  =   0.88975
                        Activity of water  =   1.000
                 Ionic strength (mol/kgw)  =   1.016e-07
                       Mass of water (kg)  =   1.000e+00
                 Total alkalinity (eq/kg)  =   3.073e-09
                         Temperature (°C)  =  25.00
                           Pressure (atm)  = 21.10
                  Electrical balance (eq)  =  -3.073e-09
 Percent error, 100*(Cat-|An|)/(Cat+|An|)  =  -1.51
                               Iterations  =   0
                                  Total H  = 1.110124e+02
                                  Total O  = 5.550622e+01

----------------------------Distribution of species----------------------------

                                               Log       Log       Log    mole V
   Species          Molality    Activity  Molality  Activity     Gamma   cm³/mol

   OH-             1.031e-07   1.031e-07    -6.987    -6.987    -0.000     -4.06
   H+              1.001e-07   1.000e-07    -7.000    -7.000    -0.000      0.00
   H2O             5.551e+01   1.000e+00     1.744     0.000     0.000     18.05
H(0)          1.399e-25
   H2              6.993e-26   6.993e-26   -25.155   -25.155     0.000     15.00
O(0)          0.000e+00
   O2              0.000e+00   0.000e+00   -42.061   -42.061     0.000     30.37

------------------------------Saturation indices-------------------------------

  Phase               SI** log IAP   log K(298 K,  21 atm)

  H2(g)           -22.05    -25.16   -3.10  H2
  H2O(g)           -1.50      0.00    1.50  H2O
  O2(g)           -39.16    -42.06   -2.90  O2

**For a gas, SI = log10(fugacity). Fugacity = pressure * phi / 1 atm.
  For ideal gases, phi = 1.

-----------------------------------------
Beginning of batch-reaction calculations.
-----------------------------------------

Reaction step 1.

Using solution 1.	
Using pure phase assemblage 1.	

-------------------------------Phase assemblage--------------------------------

                                                      Moles in assemblage
Phase               SI  log IAP  log K(T, P)   Initial       Final       Delta

CO2(g)            1.27    -0.21     -1.48    1.000e+01   9.369e+00  -6.314e-01

-----------------------------Solution composition------------------------------

	Elements           Molality       Moles

	C                 6.315e-01   6.314e-01

----------------------------Description of solution----------------------------

                                       pH  =   3.277      Charge balance
                                       pe  =   2.218      Adjusted to redox equilibrium
      Specific Conductance (µS/cm,  25°C)  = 199
                          Density (g/cm³)  =   1.00371
                               Volume (L)  =   1.02399
                        Viscosity (mPa s)  =   0.93313
                        Activity of water  =   0.989
                 Ionic strength (mol/kgw)  =   5.416e-04
                       Mass of water (kg)  =   1.000e+00
                 Total alkalinity (eq/kg)  =   3.073e-09
                       Total CO2 (mol/kg)  =   6.315e-01
                         Temperature (°C)  =  25.00
                           Pressure (atm)  = 21.10
                  Electrical balance (eq)  =  -3.073e-09
 Percent error, 100*(Cat-|An|)/(Cat+|An|)  =  -0.00
                               Iterations  =  14
                                  Total H  = 1.110124e+02
                                  Total O  = 5.676911e+01

----------------------------Distribution of species----------------------------

                                               Log       Log       Log    mole V
   Species          Molality    Activity  Molality  Activity     Gamma   cm³/mol

   H+              5.416e-04   5.280e-04    -3.266    -3.277    -0.011      0.00
   OH-             1.984e-11   1.931e-11   -10.703   -10.714    -0.012     -4.04
   H2O             5.551e+01   9.894e-01     1.744    -0.005     0.000     18.05
C(-4)         1.624e-20
   CH4             1.624e-20   1.624e-20   -19.789   -19.789     0.000     35.48
C(4)          6.315e-01
   CO2             6.185e-01   6.185e-01    -0.209    -0.209     0.000     34.77
   (CO2)2          6.223e-03   6.224e-03    -2.206    -2.206     0.000     68.71
   HCO3-           5.416e-04   5.276e-04    -3.266    -3.278    -0.011     24.61
   CO3-2           5.331e-11   4.800e-11   -10.273   -10.319    -0.046     -4.53
H(0)          1.425e-14
   H2              7.125e-15   7.126e-15   -14.147   -14.147     0.000     15.00
O(0)          0.000e+00
   O2              0.000e+00   0.000e+00   -64.086   -64.086     0.000     30.37

------------------------------Saturation indices-------------------------------

  Phase               SI** log IAP   log K(298 K,  21 atm)

  CH4(g)          -16.97    -19.79   -2.81  CH4
  CO2(g)            1.27     -0.21   -1.48  CO2	 Pressure  21.1 atm, phi 0.886
  H2(g)           -11.04    -14.15   -3.10  H2
  H2O(g)           -1.50     -0.00    1.50  H2O
  O2(g)           -61.18    -64.09   -2.90  O2

**For a gas, SI = log10(fugacity). Fugacity = pressure * phi / 1 atm.
  For ideal gases, phi = 1.

------------------
End of simulation.
------------------

------------------------------------
Reading input data for simulation 4.
------------------------------------

		SOLUTION 1
	 temp 25
	pressure   4.1100e+01
	EQUILIBRIUM_PHASES
	 CO2(g)   1.6138e+00
	END
-------------------------------------------
Beginning of initial solution calculations.
-------------------------------------------

Initial solution 1.	

-----------------------------Solution composition------------------------------

	Elements           Molality       Moles

	Pure water     

----------------------------Description of solution----------------------------

                                       pH  =   7.000    
                                       pe  =   4.000    
      Specific Conductance (µS/cm,  25°C)  = 0
                          Density (g/cm³)  =   0.99885
                               Volume (L)  =   1.00116
                        Viscosity (mPa s)  =   0.88949
                        Activity of water  =   1.000
                 Ionic strength (mol/kgw)  =   1.025e-07
                       Mass of water (kg)  =   1.000e+00
                 Total alkalinity (eq/kg)  =   4.939e-09
                         Temperature (°C)  =  25.00
                           Pressure (atm)  = 41.10
                  Electrical balance (eq)  =  -4.939e-09
 Percent error, 100*(Cat-|An|)/(Cat+|An|)  =  -2.41
                               Iterations  =   0
                                  Total H  = 1.110124e+02
                                  Total O  = 5.550622e+01

----------------------------Distribution of species----------------------------

                                               Log       Log       Log    mole V
   Species          Molality    Activity  Molality  Activity     Gamma   cm³/mol

   OH-             1.050e-07   1.050e-07    -6.979    -6.979    -0.000     -3.99
   H+              1.001e-07   1.000e-07    -7.000    -7.000    -0.000      0.00
   H2O             5.551e+01   1.000e+00     1.744     0.000     0.000     18.04
H(0)          1.381e-25
   H2              6.907e-26   6.907e-26   -25.161   -25.161     0.000     15.02
O(0)          0.000e+00
   O2              0.000e+00   0.000e+00   -42.058   -42.058     0.000     30.34

------------------------------Saturation indices-------------------------------

  Phase               SI** log IAP   log K(298 K,  41 atm)

  H2(g)           -22.05    -25.16   -3.11  H2
  H2O(g)           -1.49      0.00    1.49  H2O
  O2(g)           -39.14    -42.06   -2.91  O2

**For a gas, SI = log10(fugacity). Fugacity = pressure * phi / 1 atm.
  For ideal gases, phi = 1.

-----------------------------------------
Beginning of batch-reaction calculations.
-----------------------------------------

Reaction step 1.

Using solution 1.	
Using pure phase assemblage 1.	

-------------------------------Phase assemblage--------------------------------

                                                      Moles in assemblage
Phase               SI  log IAP  log K(T, P)   Initial       Final       Delta

CO2(g)            1.51     0.01     -1.49    1.000e+01   8.930e+00  -1.070e+00

-----------------------------Solution composition------------------------------

	Elements           Molality       Moles

	C                 1.070e+00   1.070e+00

----------------------------Description of solution----------------------------

                                       pH  =   3.162      Charge balance
                                       pe  =   2.426      Adjusted to redox equilibrium
      Specific Conductance (µS/cm,  25°C)  = 252
                          Density (g/cm³)  =   1.00847
                               Volume (L)  =   1.03831
                        Viscosity (mPa s)  =   0.96286
                        Activity of water  =   0.982
                 Ionic strength (mol/kgw)  =   7.085e-04
                       Mass of water (kg)  =   1.000e+00
                 Total alkalinity (eq/kg)  =   4.939e-09
                       Total CO2 (mol/kg)  =   1.070e+00
                         Temperature (°C)  =  25.00
                           Pressure (atm)  = 41.10
                  Electrical balance (eq)  =  -4.939e-09
 Percent error, 100*(Cat-|An|)/(Cat+|An|)  =  -0.00
                               Iterations  =  14
                                  Total H  = 1.110124e+02
                                  Total O  = 5.764658e+01

----------------------------Distribution of species----------------------------

                                               Log       Log       Log    mole V
   Species          Molality    Activity  Molality  Activity     Gamma   cm³/mol

   H+              7.085e-04   6.883e-04    -3.150    -3.162    -0.013      0.00
   OH-             1.543e-11   1.497e-11   -10.812   -10.825    -0.013     -3.96
   H2O             5.551e+01   9.821e-01     1.744    -0.008     0.000     18.04
C(-4)         4.904e-21
   CH4             4.904e-21   4.905e-21   -20.309   -20.309     0.000     35.51
C(4)          1.070e+00
   CO2             1.035e+00   1.035e+00     0.015     0.015     0.000     34.75
   (CO2)2          1.743e-02   1.743e-02    -1.759    -1.759     0.000     68.66
   HCO3-           7.085e-04   6.877e-04    -3.150    -3.163    -0.013     24.67
   CO3-2           5.536e-11   4.914e-11   -10.257   -10.309    -0.052     -4.33
H(0)          9.210e-15
   H2              4.605e-15   4.606e-15   -14.337   -14.337     0.000     15.02
O(0)          0.000e+00
   O2              0.000e+00   0.000e+00   -63.722   -63.722     0.000     30.34

------------------------------Saturation indices-------------------------------

  Phase               SI** log IAP   log K(298 K,  41 atm)

  CH4(g)          -17.48    -20.31   -2.83  CH4
  CO2(g)            1.51      0.01   -1.49  CO2	 Pressure  41.1 atm, phi 0.783
  H2(g)           -11.23    -14.34   -3.11  H2
  H2O(g)           -1.50     -0.01    1.49  H2O
  O2(g)           -60.81    -63.72   -2.91  O2

**For a gas, SI = log10(fugacity). Fugacity = pressure * phi / 1 atm.
  For ideal gases, phi = 1.

------------------
End of simulation.
------------------

------------------------------------
Reading input data for simulation 5.
------------------------------------

		SOLUTION 1
	 temp 25
	pressure   6.1100e+01
	EQUILIBRIUM_PHASES
	 CO2(g)   1.7860e+00
	END
-------------------------------------------
Beginning of initial solution calculations.
-------------------------------------------

Initial solution 1.	

-----------------------------Solution composition------------------------------

	Elements           Molality       Moles

	Pure water     

----------------------------Description of solution----------------------------

                                       pH  =   7.000    
                                       pe  =   4.000    
      Specific Conductance (µS/cm,  25°C)  = 0
                          Density (g/cm³)  =   0.99974
                               Volume (L)  =   1.00026
                        Viscosity (mPa s)  =   0.88925
                        Activity of water  =   1.000
                 Ionic strength (mol/kgw)  =   1.035e-07
                       Mass of water (kg)  =   1.000e+00
                 Total alkalinity (eq/kg)  =   6.823e-09
                         Temperature (°C)  =  25.00
                           Pressure (atm)  = 61.10
                  Electrical balance (eq)  =  -6.823e-09
 Percent error, 100*(Cat-|An|)/(Cat+|An|)  =  -3.30
                               Iterations  =   0
                                  Total H  = 1.110124e+02
                                  Total O  = 5.550622e+01

----------------------------Distribution of species----------------------------

                                               Log       Log       Log    mole V
   Species          Molality    Activity  Molality  Activity     Gamma   cm³/mol

   OH-             1.069e-07   1.068e-07    -6.971    -6.971    -0.000     -3.92
   H+              1.001e-07   1.000e-07    -7.000    -7.000    -0.000      0.00
   H2O             5.551e+01   1.000e+00     1.744     0.000     0.000     18.02
H(0)          1.365e-25
   H2              6.823e-26   6.823e-26   -25.166   -25.166     0.000     15.03
O(0)          0.000e+00
   O2              0.000e+00   0.000e+00   -42.056   -42.056     0.000     30.31

------------------------------Saturation indices-------------------------------

  Phase               SI** log IAP   log K(298 K,  61 atm)

  H2(g)           -22.05    -25.17   -3.12  H2
  H2O(g)           -1.48      0.00    1.48  H2O
  O2(g)           -39.13    -42.06   -2.92  O2

**For a gas, SI = log10(fugacity). Fugacity = pressure * phi / 1 atm.
  For ideal gases, phi = 1.

-----------------------------------------
Beginning of batch-reaction calculations.
-----------------------------------------

Reaction step 1.

Using solution 1.	
Using pure phase assemblage 1.	

-------------------------------Phase assemblage--------------------------------

                                                      Moles in assemblage
Phase               SI  log IAP  log K(T, P)   Initial       Final       Delta

CO2(g)            1.62     0.11     -1.51    1.000e+01   8.646e+00  -1.354e+00

-----------------------------Solution composition------------------------------

	Elements           Molality       Moles

	C                 1.354e+00   1.354e+00

----------------------------Description of solution----------------------------

                                       pH  =   3.109      Charge balance
                                       pe  =  14.723      Adjusted to redox equilibrium
      Specific Conductance (µS/cm,  25°C)  = 279
                          Density (g/cm³)  =   1.01180
                               Volume (L)  =   1.04724
                        Viscosity (mPa s)  =   0.98198
                        Activity of water  =   0.977
                 Ionic strength (mol/kgw)  =   8.022e-04
                       Mass of water (kg)  =   1.000e+00
                 Total alkalinity (eq/kg)  =   6.823e-09
                       Total CO2 (mol/kg)  =   1.354e+00
                         Temperature (°C)  =  25.00
                           Pressure (atm)  = 61.10
                  Electrical balance (eq)  =  -6.823e-09
 Percent error, 100*(Cat-|An|)/(Cat+|An|)  =  -0.00
                               Iterations  =  14
                                  Total H  = 1.110124e+02
                                  Total O  = 5.821455e+01

----------------------------Distribution of species----------------------------

                                               Log       Log       Log    mole V
   Species          Molality    Activity  Molality  Activity     Gamma   cm³/mol

   H+              8.022e-04   7.780e-04    -3.096    -3.109    -0.013      0.00
   OH-             1.386e-11   1.342e-11   -10.858   -10.872    -0.014     -3.89
   H2O             5.551e+01   9.774e-01     1.744    -0.010     0.000     18.02
C(-4)         0.000e+00
   CH4             0.000e+00   0.000e+00  -118.172  -118.172     0.000     35.54
C(4)          1.354e+00
   CO2             1.298e+00   1.299e+00     0.113     0.113     0.000     34.73
   (CO2)2          2.747e-02   2.747e-02    -1.561    -1.561     0.000     68.62
   HCO3-           8.022e-04   7.773e-04    -3.096    -3.109    -0.014     24.73
   CO3-2           5.707e-11   5.030e-11   -10.244   -10.298    -0.055     -4.14
H(0)          2.957e-39
   H2              1.479e-39   1.479e-39   -38.830   -38.830     0.000     15.03
O(0)          3.571e-15
   O2              1.785e-15   1.786e-15   -14.748   -14.748     0.000     30.31

------------------------------Saturation indices-------------------------------

  Phase               SI** log IAP   log K(298 K,  61 atm)

  CH4(g)         -115.33   -118.17   -2.84  CH4
  CO2(g)            1.62      0.11   -1.51  CO2	 Pressure  61.1 atm, phi 0.680
  H2(g)           -35.71    -38.83   -3.12  H2
  H2O(g)           -1.49     -0.01    1.48  H2O
  O2(g)           -11.82    -14.75   -2.92  O2

**For a gas, SI = log10(fugacity). Fugacity = pressure * phi / 1 atm.
  For ideal gases, phi = 1.

------------------
End of simulation.
------------------

------------------------------------
Reading input data for simulation 6.
------------------------------------

		SOLUTION 1
	 temp 25
	pressure   8.1100e+01
	EQUILIBRIUM_PHASES
	 CO2(g)   1.9090e+00
	END
-------------------------------------------
Beginning of initial solution calculations.
-------------------------------------------

Initial solution 1.	

-----------------------------Solution composition------------------------------

	Elements           Molality       Moles

	Pure water     

----------------------------Description of solution----------------------------

                                       pH  =   7.000    
                                       pe  =   4.000    
      Specific Conductance (µS/cm,  25°C)  = 0
                          Density (g/cm³)  =   1.00064
                               Volume (L)  =   0.99936
                        Viscosity (mPa s)  =   0.88901
                        Activity of water  =   1.000
                 Ionic strength (mol/kgw)  =   1.044e-07
                       Mass of water (kg)  =   1.000e+00
                 Total alkalinity (eq/kg)  =   8.726e-09
                         Temperature (°C)  =  25.00
                           Pressure (atm)  = 81.10
                  Electrical balance (eq)  =  -8.726e-09
 Percent error, 100*(Cat-|An|)/(Cat+|An|)  =  -4.18
                               Iterations  =   0
                                  Total H  = 1.110124e+02
                                  Total O  = 5.550622e+01

----------------------------Distribution of species----------------------------

                                               Log       Log       Log    mole V
   Species          Molality    Activity  Molality  Activity     Gamma   cm³/mol

   OH-             1.088e-07   1.087e-07    -6.963    -6.964    -0.000     -3.84
   H+              1.001e-07   1.000e-07    -7.000    -7.000    -0.000      0.00
   H2O             5.551e+01   1.000e+00     1.744     0.000     0.000     18.00
H(0)          1.348e-25
   H2              6.739e-26   6.739e-26   -25.171   -25.171     0.000     15.05
O(0)          0.000e+00
   O2              0.000e+00   0.000e+00   -42.054   -42.054     0.000     30.28

------------------------------Saturation indices-------------------------------

  Phase               SI** log IAP   log K(298 K,  81 atm)

  H2(g)           -22.05    -25.17   -3.12  H2
  H2O(g)           -1.48      0.00    1.48  H2O
  O2(g)           -39.12    -42.05   -2.94  O2

**For a gas, SI = log10(fugacity). Fugacity = pressure * phi / 1 atm.
  For ideal gases, phi = 1.

-----------------------------------------
Beginning of batch-reaction calculations.
-----------------------------------------

Reaction step 1.

Using solution 1.	
Using pure phase assemblage 1.	

-------------------------------Phase assemblage--------------------------------

                                                      Moles in assemblage
Phase               SI  log IAP  log K(T, P)   Initial       Final       Delta

CO2(g)            1.65     0.13     -1.52    1.000e+01   8.592e+00  -1.408e+00

-----------------------------Solution composition------------------------------

	Elements           Molality       Moles

	C                 1.408e+00   1.408e+00

----------------------------Description of solution----------------------------

                                       pH  =   3.096      Charge balance
                                       pe  =   2.354      Adjusted to redox equilibrium
      Specific Conductance (µS/cm,  25°C)  = 287
                          Density (g/cm³)  =   1.01315
                               Volume (L)  =   1.04818
                        Viscosity (mPa s)  =   0.98541
                        Activity of water  =   0.977
                 Ionic strength (mol/kgw)  =   8.266e-04
                       Mass of water (kg)  =   1.000e+00
                 Total alkalinity (eq/kg)  =   8.726e-09
                       Total CO2 (mol/kg)  =   1.408e+00
                         Temperature (°C)  =  25.00
                           Pressure (atm)  = 81.10
                  Electrical balance (eq)  =  -8.726e-09
 Percent error, 100*(Cat-|An|)/(Cat+|An|)  =  -0.00
                               Iterations  =  14
                                  Total H  = 1.110124e+02
                                  Total O  = 5.832178e+01

----------------------------Distribution of species----------------------------

                                               Log       Log       Log    mole V
   Species          Molality    Activity  Molality  Activity     Gamma   cm³/mol

   H+              8.266e-04   8.013e-04    -3.083    -3.096    -0.013      0.00
   OH-             1.369e-11   1.325e-11   -10.864   -10.878    -0.014     -3.82
   H2O             5.551e+01   9.766e-01     1.744    -0.010     0.000     18.00
C(-4)         7.677e-20
   CH4             7.677e-20   7.679e-20   -19.115   -19.115     0.000     35.56
C(4)          1.408e+00
   CO2             1.348e+00   1.348e+00     0.130     0.130     0.000     34.71
   (CO2)2          2.961e-02   2.962e-02    -1.528    -1.528     0.000     68.58
   HCO3-           8.266e-04   8.005e-04    -3.083    -3.097    -0.014     24.79
   CO3-2           5.851e-11   5.148e-11   -10.233   -10.288    -0.056     -3.97
H(0)          1.694e-14
   H2              8.469e-15   8.470e-15   -14.072   -14.072     0.000     15.05
O(0)          0.000e+00
   O2              0.000e+00   0.000e+00   -64.274   -64.274     0.000     30.28

------------------------------Saturation indices-------------------------------

  Phase               SI** log IAP   log K(298 K,  81 atm)

  CH4(g)          -16.26    -19.11   -2.85  CH4
  CO2(g)            1.65      0.13   -1.52  CO2	 Pressure  81.1 atm, phi 0.547
  H2(g)           -10.95    -14.07   -3.12  H2
  H2O(g)           -1.49     -0.01    1.48  H2O
  O2(g)           -61.34    -64.27   -2.94  O2

**For a gas, SI = log10(fugacity). Fugacity = pressure * phi / 1 atm.
  For ideal gases, phi = 1.

------------------
End of simulation.
------------------

------------------------------------
Reading input data for simulation 7.
------------------------------------

		SOLUTION 1
	 temp 25
	pressure   1.0110e+02
	EQUILIBRIUM_PHASES
	 CO2(g)   2.0048e+00
	END
-------------------------------------------
Beginning of initial solution calculations.
-------------------------------------------

Initial solution 1.	

-----------------------------Solution composition------------------------------

	Elements           Molality       Moles

	Pure water     

----------------------------Description of solution----------------------------

                                       pH  =   7.000    
                                       pe  =   4.000    
      Specific Conductance (µS/cm,  25°C)  = 0
                          Density (g/cm³)  =   1.00153
                               Volume (L)  =   0.99847
                        Viscosity (mPa s)  =   0.88879
                        Activity of water  =   1.000
                 Ionic strength (mol/kgw)  =   1.054e-07
                       Mass of water (kg)  =   1.000e+00
                 Total alkalinity (eq/kg)  =   1.065e-08
                         Temperature (°C)  =  25.00
                           Pressure (atm)  = 101.10
                  Electrical balance (eq)  =  -1.065e-08
 Percent error, 100*(Cat-|An|)/(Cat+|An|)  =  -5.05
                               Iterations  =   0
                                  Total H  = 1.110124e+02
                                  Total O  = 5.550622e+01

----------------------------Distribution of species----------------------------

                                               Log       Log       Log    mole V
   Species          Molality    Activity  Molality  Activity     Gamma   cm³/mol

   OH-             1.107e-07   1.107e-07    -6.956    -6.956    -0.000     -3.77
   H+              1.001e-07   1.000e-07    -7.000    -7.000    -0.000      0.00
   H2O             5.551e+01   1.000e+00     1.744     0.000     0.000     17.99
H(0)          1.331e-25
   H2              6.656e-26   6.656e-26   -25.177   -25.177     0.000     15.06
O(0)          0.000e+00
   O2              0.000e+00   0.000e+00   -42.052   -42.052     0.000     30.26

------------------------------Saturation indices-------------------------------

  Phase               SI** log IAP   log K(298 K, 101 atm)

  H2(g)           -22.05    -25.18   -3.13  H2
  H2O(g)           -1.47      0.00    1.47  H2O
  O2(g)           -39.11    -42.05   -2.95  O2

**For a gas, SI = log10(fugacity). Fugacity = pressure * phi / 1 atm.
  For ideal gases, phi = 1.

-----------------------------------------
Beginning of batch-reaction calculations.
-----------------------------------------

Reaction step 1.

Using solution 1.	
Using pure phase assemblage 1.	

-------------------------------Phase assemblage--------------------------------

                                                      Moles in assemblage
Phase               SI  log IAP  log K(T, P)   Initial       Final       Delta

CO2(g)            1.67     0.14     -1.53    1.000e+01   8.564e+00  -1.436e+00

-----------------------------Solution composition------------------------------

	Elements           Molality       Moles

	C                 1.436e+00   1.436e+00

----------------------------Description of solution----------------------------

                                       pH  =   3.087      Charge balance
                                       pe  =   2.474      Adjusted to redox equilibrium
      Specific Conductance (µS/cm,  25°C)  = 293
                          Density (g/cm³)  =   1.01428
                               Volume (L)  =   1.04824
                        Viscosity (mPa s)  =   0.98712
                        Activity of water  =   0.976
                 Ionic strength (mol/kgw)  =   8.439e-04
                       Mass of water (kg)  =   1.000e+00
                 Total alkalinity (eq/kg)  =   1.065e-08
                       Total CO2 (mol/kg)  =   1.436e+00
                         Temperature (°C)  =  25.00
                           Pressure (atm)  = 101.10
                  Electrical balance (eq)  =  -1.065e-08
 Percent error, 100*(Cat-|An|)/(Cat+|An|)  =  -0.00
                               Iterations  =  14
                                  Total H  = 1.110124e+02
                                  Total O  = 5.837846e+01

----------------------------Distribution of species----------------------------

                                               Log       Log       Log    mole V
   Species          Molality    Activity  Molality  Activity     Gamma   cm³/mol

   H+              8.439e-04   8.180e-04    -3.074    -3.087    -0.014      0.00
   OH-             1.364e-11   1.320e-11   -10.865   -10.879    -0.014     -3.75
   H2O             5.551e+01   9.761e-01     1.744    -0.011     0.000     17.99
C(-4)         9.803e-21
   CH4             9.803e-21   9.805e-21   -20.009   -20.009     0.000     35.59
C(4)          1.436e+00
   CO2             1.374e+00   1.374e+00     0.138     0.138     0.000     34.69
   (CO2)2          3.079e-02   3.079e-02    -1.512    -1.512     0.000     68.54
   HCO3-           8.439e-04   8.171e-04    -3.074    -3.088    -0.014     24.85
   CO3-2           5.994e-11   5.268e-11   -10.222   -10.278    -0.056     -3.79
H(0)          1.003e-14
   H2              5.013e-15   5.014e-15   -14.300   -14.300     0.000     15.06
O(0)          0.000e+00
   O2              0.000e+00   0.000e+00   -63.827   -63.827     0.000     30.26

------------------------------Saturation indices-------------------------------

  Phase               SI** log IAP   log K(298 K, 101 atm)

  CH4(g)          -17.14    -20.01   -2.87  CH4
  CO2(g)            1.67      0.14   -1.53  CO2	 Pressure 101.1 atm, phi 0.460
  H2(g)           -11.17    -14.30   -3.13  H2
  H2O(g)           -1.48     -0.01    1.47  H2O
  O2(g)           -60.88    -63.83   -2.95  O2

**For a gas, SI = log10(fugacity). Fugacity = pressure * phi / 1 atm.
  For ideal gases, phi = 1.

------------------
End of simulation.
------------------

------------------------------------
Reading input data for simulation 8.
------------------------------------

		SOLUTION 1
	 temp 25
	pressure   1.2110e+02
	EQUILIBRIUM_PHASES
	 CO2(g)   2.0831e+00
	END
-------------------------------------------
Beginning of initial solution calculations.
-------------------------------------------

Initial solution 1.	

-----------------------------Solution composition------------------------------

	Elements           Molality       Moles

	Pure water     

----------------------------Description of solution----------------------------

                                       pH  =   7.000    
                                       pe  =   4.000    
      Specific Conductance (µS/cm,  25°C)  = 0
                          Density (g/cm³)  =   1.00242
                               Volume (L)  =   0.99758
                        Viscosity (mPa s)  =   0.88859
                        Activity of water  =   1.000
                 Ionic strength (mol/kgw)  =   1.063e-07
                       Mass of water (kg)  =   1.000e+00
                 Total alkalinity (eq/kg)  =   1.259e-08
                         Temperature (°C)  =  25.00
                           Pressure (atm)  = 121.10
                  Electrical balance (eq)  =  -1.259e-08
 Percent error, 100*(Cat-|An|)/(Cat+|An|)  =  -5.92
                               Iterations  =   0
                                  Total H  = 1.110124e+02
                                  Total O  = 5.550622e+01

----------------------------Distribution of species----------------------------

                                               Log       Log       Log    mole V
   Species          Molality    Activity  Molality  Activity     Gamma   cm³/mol

   OH-             1.126e-07   1.126e-07    -6.948    -6.948    -0.000     -3.70
   H+              1.001e-07   1.000e-07    -7.000    -7.000    -0.000      0.00
   H2O             5.551e+01   1.000e+00     1.744     0.000     0.000     17.97
H(0)          1.315e-25
   H2              6.575e-26   6.575e-26   -25.182   -25.182     0.000     15.07
O(0)          0.000e+00
   O2              0.000e+00   0.000e+00   -42.050   -42.050     0.000     30.23

------------------------------Saturation indices-------------------------------

  Phase               SI** log IAP   log K(298 K, 121 atm)

  H2(g)           -22.05    -25.18   -3.13  H2
  H2O(g)           -1.46      0.00    1.46  H2O
  O2(g)           -39.09    -42.05   -2.96  O2

**For a gas, SI = log10(fugacity). Fugacity = pressure * phi / 1 atm.
  For ideal gases, phi = 1.

-----------------------------------------
Beginning of batch-reaction calculations.
-----------------------------------------

Reaction step 1.

Using solution 1.	
Using pure phase assemblage 1.	

-------------------------------Phase assemblage--------------------------------

                                                      Moles in assemblage
Phase               SI  log IAP  log K(T, P)   Initial       Final       Delta

CO2(g)            1.69     0.15     -1.54    1.000e+01   8.539e+00  -1.461e+00

-----------------------------Solution composition------------------------------

	Elements           Molality       Moles

	C                 1.461e+00   1.461e+00

----------------------------Description of solution----------------------------

                                       pH  =   3.079      Charge balance
                                       pe  =   2.344      Adjusted to redox equilibrium
      Specific Conductance (µS/cm,  25°C)  = 298
                          Density (g/cm³)  =   1.01538
                               Volume (L)  =   1.04817
                        Viscosity (mPa s)  =   0.98859
                        Activity of water  =   0.976
                 Ionic strength (mol/kgw)  =   8.604e-04
                       Mass of water (kg)  =   1.000e+00
                 Total alkalinity (eq/kg)  =   1.259e-08
                       Total CO2 (mol/kg)  =   1.461e+00
                         Temperature (°C)  =  25.00
                           Pressure (atm)  = 121.10
                  Electrical balance (eq)  =  -1.259e-08
 Percent error, 100*(Cat-|An|)/(Cat+|An|)  =  -0.00
                               Iterations  =  14
                                  Total H  = 1.110124e+02
                                  Total O  = 5.842763e+01

----------------------------Distribution of species----------------------------

                                               Log       Log       Log    mole V
   Species          Molality    Activity  Molality  Activity     Gamma   cm³/mol

   H+              8.604e-04   8.337e-04    -3.065    -3.079    -0.014      0.00
   OH-             1.362e-11   1.317e-11   -10.866   -10.880    -0.014     -3.68
   H2O             5.551e+01   9.757e-01     1.744    -0.011     0.000     17.97
C(-4)         1.251e-19
   CH4             1.251e-19   1.251e-19   -18.903   -18.903     0.000     35.62
C(4)          1.461e+00
   CO2             1.396e+00   1.396e+00     0.145     0.145     0.000     34.67
   (CO2)2          3.183e-02   3.183e-02    -1.497    -1.497     0.000     68.50
   HCO3-           8.604e-04   8.329e-04    -3.065    -3.079    -0.014     24.91
   CO3-2           6.139e-11   5.389e-11   -10.212   -10.268    -0.057     -3.62
H(0)          1.878e-14
   H2              9.389e-15   9.391e-15   -14.027   -14.027     0.000     15.07
O(0)          0.000e+00
   O2              0.000e+00   0.000e+00   -64.382   -64.381     0.000     30.23

------------------------------Saturation indices-------------------------------

  Phase               SI** log IAP   log K(298 K, 121 atm)

  CH4(g)          -16.02    -18.90   -2.88  CH4
  CO2(g)            1.69      0.15   -1.54  CO2	 Pressure 121.1 atm, phi 0.402
  H2(g)           -10.90    -14.03   -3.13  H2
  H2O(g)           -1.48     -0.01    1.46  H2O
  O2(g)           -61.42    -64.38   -2.96  O2

**For a gas, SI = log10(fugacity). Fugacity = pressure * phi / 1 atm.
  For ideal gases, phi = 1.

------------------
End of simulation.
------------------

------------------------------------
Reading input data for simulation 9.
------------------------------------

		SOLUTION 1
	 temp 25
	pressure   1.4110e+02
	EQUILIBRIUM_PHASES
	 CO2(g)   2.1495e+00
	END
-------------------------------------------
Beginning of initial solution calculations.
-------------------------------------------

Initial solution 1.	

-----------------------------Solution composition------------------------------

	Elements           Molality       Moles

	Pure water     

----------------------------Description of solution----------------------------

                                       pH  =   7.000    
                                       pe  =   4.000    
      Specific Conductance (µS/cm,  25°C)  = 0
                          Density (g/cm³)  =   1.00331
                               Volume (L)  =   0.99670
                        Viscosity (mPa s)  =   0.88839
                        Activity of water  =   1.000
                 Ionic strength (mol/kgw)  =   1.073e-07
                       Mass of water (kg)  =   1.000e+00
                 Total alkalinity (eq/kg)  =   1.454e-08
                         Temperature (°C)  =  25.00
                           Pressure (atm)  = 141.10
                  Electrical balance (eq)  =  -1.454e-08
 Percent error, 100*(Cat-|An|)/(Cat+|An|)  =  -6.78
                               Iterations  =   0
                                  Total H  = 1.110124e+02
                                  Total O  = 5.550622e+01

----------------------------Distribution of species----------------------------

                                               Log       Log       Log    mole V
   Species          Molality    Activity  Molality  Activity     Gamma   cm³/mol

   OH-             1.146e-07   1.146e-07    -6.941    -6.941    -0.000     -3.63
   H+              1.001e-07   1.000e-07    -7.000    -7.000    -0.000      0.00
   H2O             5.551e+01   1.000e+00     1.744     0.000     0.000     17.96
H(0)          1.299e-25
   H2              6.494e-26   6.494e-26   -25.188   -25.188     0.000     15.08
O(0)          0.000e+00
   O2              0.000e+00   0.000e+00   -42.048   -42.048     0.000     30.20

------------------------------Saturation indices-------------------------------

  Phase               SI** log IAP   log K(298 K, 141 atm)

  H2(g)           -22.05    -25.19   -3.14  H2
  H2O(g)           -1.46      0.00    1.46  H2O
  O2(g)           -39.08    -42.05   -2.97  O2

**For a gas, SI = log10(fugacity). Fugacity = pressure * phi / 1 atm.
  For ideal gases, phi = 1.

-----------------------------------------
Beginning of batch-reaction calculations.
-----------------------------------------

Reaction step 1.

Using solution 1.	
Using pure phase assemblage 1.	

-------------------------------Phase assemblage--------------------------------

                                                      Moles in assemblage
Phase               SI  log IAP  log K(T, P)   Initial       Final       Delta

CO2(g)            1.71     0.15     -1.55    1.000e+01   8.517e+00  -1.483e+00

-----------------------------Solution composition------------------------------

	Elements           Molality       Moles

	C                 1.483e+00   1.483e+00

----------------------------Description of solution----------------------------

                                       pH  =   3.071      Charge balance
                                       pe  =   2.741      Adjusted to redox equilibrium
      Specific Conductance (µS/cm,  25°C)  = 304
                          Density (g/cm³)  =   1.01645
                               Volume (L)  =   1.04803
                        Viscosity (mPa s)  =   0.98992
                        Activity of water  =   0.975
                 Ionic strength (mol/kgw)  =   8.763e-04
                       Mass of water (kg)  =   1.000e+00
                 Total alkalinity (eq/kg)  =   1.454e-08
                       Total CO2 (mol/kg)  =   1.483e+00
                         Temperature (°C)  =  25.00
                           Pressure (atm)  = 141.10
                  Electrical balance (eq)  =  -1.454e-08
 Percent error, 100*(Cat-|An|)/(Cat+|An|)  =  -0.00
                               Iterations  =  14
                                  Total H  = 1.110124e+02
                                  Total O  = 5.847217e+01

----------------------------Distribution of species----------------------------

                                               Log       Log       Log    mole V
   Species          Molality    Activity  Molality  Activity     Gamma   cm³/mol

   H+              8.763e-04   8.489e-04    -3.057    -3.071    -0.014      0.00
   OH-             1.360e-11   1.316e-11   -10.866   -10.881    -0.015     -3.61
   H2O             5.551e+01   9.753e-01     1.744    -0.011     0.000     17.96
C(-4)         9.378e-23
   CH4             9.378e-23   9.380e-23   -22.028   -22.028     0.000     35.64
C(4)          1.483e+00
   CO2             1.417e+00   1.417e+00     0.151     0.151     0.000     34.65
   (CO2)2          3.278e-02   3.279e-02    -1.484    -1.484     0.000     68.45
   HCO3-           8.763e-04   8.481e-04    -3.057    -3.072    -0.014     24.97
   CO3-2           6.286e-11   5.513e-11   -10.202   -10.259    -0.057     -3.45
H(0)          3.080e-15
   H2              1.540e-15   1.541e-15   -14.812   -14.812     0.000     15.08
O(0)          0.000e+00
   O2              0.000e+00   0.000e+00   -62.820   -62.820     0.000     30.20

------------------------------Saturation indices-------------------------------

  Phase               SI** log IAP   log K(298 K, 141 atm)

  CH4(g)          -19.14    -22.03   -2.89  CH4
  CO2(g)            1.71      0.15   -1.55  CO2	 Pressure 141.1 atm, phi 0.360
  H2(g)           -11.68    -14.81   -3.14  H2
  H2O(g)           -1.47     -0.01    1.46  H2O
  O2(g)           -59.85    -62.82   -2.97  O2

**For a gas, SI = log10(fugacity). Fugacity = pressure * phi / 1 atm.
  For ideal gases, phi = 1.

------------------
End of simulation.
------------------

-------------------------------------
Reading input data for simulation 10.
-------------------------------------

		SOLUTION 1
	 temp 25
	pressure   1.6110e+02
	EQUILIBRIUM_PHASES
	 CO2(g)   2.2071e+00
	END
-------------------------------------------
Beginning of initial solution calculations.
-------------------------------------------

Initial solution 1.	

-----------------------------Solution composition------------------------------

	Elements           Molality       Moles

	Pure water     

----------------------------Description of solution----------------------------

                                       pH  =   7.000    
                                       pe  =   4.000    
      Specific Conductance (µS/cm,  25°C)  = 0
                          Density (g/cm³)  =   1.00419
                               Volume (L)  =   0.99582
                        Viscosity (mPa s)  =   0.88821
                        Activity of water  =   1.000
                 Ionic strength (mol/kgw)  =   1.083e-07
                       Mass of water (kg)  =   1.000e+00
                 Total alkalinity (eq/kg)  =   1.652e-08
                         Temperature (°C)  =  25.00
                           Pressure (atm)  = 161.10
                  Electrical balance (eq)  =  -1.652e-08
 Percent error, 100*(Cat-|An|)/(Cat+|An|)  =  -7.63
                               Iterations  =   0
                                  Total H  = 1.110124e+02
                                  Total O  = 5.550622e+01

----------------------------Distribution of species----------------------------

                                               Log       Log       Log    mole V
   Species          Molality    Activity  Molality  Activity     Gamma   cm³/mol

   OH-             1.166e-07   1.165e-07    -6.933    -6.934    -0.000     -3.56
   H+              1.001e-07   1.000e-07    -7.000    -7.000    -0.000      0.00
   H2O             5.551e+01   1.000e+00     1.744     0.000     0.000     17.94
H(0)          1.283e-25
   H2              6.414e-26   6.414e-26   -25.193   -25.193     0.000     15.10
O(0)          0.000e+00
   O2              0.000e+00   0.000e+00   -42.046   -42.046     0.000     30.17

------------------------------Saturation indices-------------------------------

  Phase               SI** log IAP   log K(298 K, 161 atm)

  H2(g)           -22.05    -25.19   -3.14  H2
  H2O(g)           -1.45      0.00    1.45  H2O
  O2(g)           -39.07    -42.05   -2.98  O2

**For a gas, SI = log10(fugacity). Fugacity = pressure * phi / 1 atm.
  For ideal gases, phi = 1.

-----------------------------------------
Beginning of batch-reaction calculations.
-----------------------------------------

Reaction step 1.

Using solution 1.	
Using pure phase assemblage 1.	

-------------------------------Phase assemblage--------------------------------

                                                      Moles in assemblage
Phase               SI  log IAP  log K(T, P)   Initial       Final       Delta

CO2(g)            1.72     0.16     -1.57    1.000e+01   8.497e+00  -1.503e+00

-----------------------------Solution composition------------------------------

	Elements           Molality       Moles

	C                 1.503e+00   1.503e+00

----------------------------Description of solution----------------------------

                                       pH  =   3.064      Charge balance
                                       pe  =   3.499      Adjusted to redox equilibrium
      Specific Conductance (µS/cm,  25°C)  = 309
                          Density (g/cm³)  =   1.01750
                               Volume (L)  =   1.04783
                        Viscosity (mPa s)  =   0.99115
                        Activity of water  =   0.975
                 Ionic strength (mol/kgw)  =   8.919e-04
                       Mass of water (kg)  =   1.000e+00
                 Total alkalinity (eq/kg)  =   1.652e-08
                       Total CO2 (mol/kg)  =   1.503e+00
                         Temperature (°C)  =  25.00
                           Pressure (atm)  = 161.10
                  Electrical balance (eq)  =  -1.652e-08
 Percent error, 100*(Cat-|An|)/(Cat+|An|)  =  -0.00
                               Iterations  =  14
                                  Total H  = 1.110124e+02
                                  Total O  = 5.851316e+01

----------------------------Distribution of species----------------------------

                                               Log       Log       Log    mole V
   Species          Molality    Activity  Molality  Activity     Gamma   cm³/mol

   H+              8.919e-04   8.638e-04    -3.050    -3.064    -0.014      0.00
   OH-             1.360e-11   1.315e-11   -10.867   -10.881    -0.015     -3.54
   H2O             5.551e+01   9.750e-01     1.744    -0.011     0.000     17.94
C(-4)         9.194e-29
   CH4             9.194e-29   9.196e-29   -28.036   -28.036     0.000     35.66
C(4)          1.503e+00
   CO2             1.435e+00   1.435e+00     0.157     0.157     0.000     34.63
   (CO2)2          3.368e-02   3.368e-02    -1.473    -1.473     0.000     68.41
   HCO3-           8.919e-04   8.629e-04    -3.050    -3.064    -0.014     25.02
   CO3-2           6.435e-11   5.638e-11   -10.191   -10.249    -0.057     -3.28
H(0)          9.613e-17
   H2              4.806e-17   4.807e-17   -16.318   -16.318     0.000     15.10
O(0)          0.000e+00
   O2              0.000e+00   0.000e+00   -59.818   -59.818     0.000     30.17

------------------------------Saturation indices-------------------------------

  Phase               SI** log IAP   log K(298 K, 161 atm)

  CH4(g)          -25.13    -28.04   -2.90  CH4
  CO2(g)            1.72      0.16   -1.57  CO2	 Pressure 161.1 atm, phi 0.328
  H2(g)           -13.18    -16.32   -3.14  H2
  H2O(g)           -1.46     -0.01    1.45  H2O
  O2(g)           -56.84    -59.82   -2.98  O2

**For a gas, SI = log10(fugacity). Fugacity = pressure * phi / 1 atm.
  For ideal gases, phi = 1.

------------------
End of simulation.
------------------

-------------------------------------
Reading input data for simulation 11.
-------------------------------------

		SOLUTION 1
	 temp 25
	pressure   1.8110e+02
	EQUILIBRIUM_PHASES
	 CO2(g)   2.2579e+00
	END
-------------------------------------------
Beginning of initial solution calculations.
-------------------------------------------

Initial solution 1.	

-----------------------------Solution composition------------------------------

	Elements           Molality       Moles

	Pure water     

----------------------------Description of solution----------------------------

                                       pH  =   7.000    
                                       pe  =   4.000    
      Specific Conductance (µS/cm,  25°C)  = 0
                          Density (g/cm³)  =   1.00508
                               Volume (L)  =   0.99495
                        Viscosity (mPa s)  =   0.88805
                        Activity of water  =   1.000
                 Ionic strength (mol/kgw)  =   1.093e-07
                       Mass of water (kg)  =   1.000e+00
                 Total alkalinity (eq/kg)  =   1.851e-08
                         Temperature (°C)  =  25.00
                           Pressure (atm)  = 181.10
                  Electrical balance (eq)  =  -1.851e-08
 Percent error, 100*(Cat-|An|)/(Cat+|An|)  =  -8.47
                               Iterations  =   0
                                  Total H  = 1.110124e+02
                                  Total O  = 5.550622e+01

----------------------------Distribution of species----------------------------

                                               Log       Log       Log    mole V
   Species          Molality    Activity  Molality  Activity     Gamma   cm³/mol

   OH-             1.186e-07   1.185e-07    -6.926    -6.926    -0.000     -3.50
   H+              1.001e-07   1.000e-07    -7.000    -7.000    -0.000      0.00
   H2O             5.551e+01   1.000e+00     1.744     0.000     0.000     17.92
H(0)          1.267e-25
   H2              6.334e-26   6.334e-26   -25.198   -25.198     0.000     15.11
O(0)          0.000e+00
   O2              0.000e+00   0.000e+00   -42.044   -42.044     0.000     30.15

------------------------------Saturation indices-------------------------------

  Phase               SI** log IAP   log K(298 K, 181 atm)

  H2(g)           -22.05    -25.20   -3.15  H2
  H2O(g)           -1.45      0.00    1.45  H2O
  O2(g)           -39.06    -42.04   -2.99  O2

**For a gas, SI = log10(fugacity). Fugacity = pressure * phi / 1 atm.
  For ideal gases, phi = 1.

-----------------------------------------
Beginning of batch-reaction calculations.
-----------------------------------------

Reaction step 1.

Using solution 1.	
Using pure phase assemblage 1.	

-------------------------------Phase assemblage--------------------------------

                                                      Moles in assemblage
Phase               SI  log IAP  log K(T, P)   Initial       Final       Delta

CO2(g)            1.74     0.16     -1.58    1.000e+01   8.478e+00  -1.522e+00

-----------------------------Solution composition------------------------------

	Elements           Molality       Moles

	C                 1.523e+00   1.522e+00

----------------------------Description of solution----------------------------

                                       pH  =   3.056      Charge balance
                                       pe  =   2.803      Adjusted to redox equilibrium
      Specific Conductance (µS/cm,  25°C)  = 315
                          Density (g/cm³)  =   1.01854
                               Volume (L)  =   1.04758
                        Viscosity (mPa s)  =   0.99228
                        Activity of water  =   0.975
                 Ionic strength (mol/kgw)  =   9.072e-04
                       Mass of water (kg)  =   1.000e+00
                 Total alkalinity (eq/kg)  =   1.851e-08
                       Total CO2 (mol/kg)  =   1.523e+00
                         Temperature (°C)  =  25.00
                           Pressure (atm)  = 181.10
                  Electrical balance (eq)  =  -1.851e-08
 Percent error, 100*(Cat-|An|)/(Cat+|An|)  =  -0.00
                               Iterations  =  15
                                  Total H  = 1.110124e+02
                                  Total O  = 5.855117e+01

----------------------------Distribution of species----------------------------

                                               Log       Log       Log    mole V
   Species          Molality    Activity  Molality  Activity     Gamma   cm³/mol

   H+              9.072e-04   8.784e-04    -3.042    -3.056    -0.014      0.00
   OH-             1.360e-11   1.315e-11   -10.866   -10.881    -0.015     -3.47
   H2O             5.551e+01   9.747e-01     1.744    -0.011     0.000     17.92
C(-4)         3.805e-23
   CH4             3.805e-23   3.805e-23   -22.420   -22.420     0.000     35.69
C(4)          1.523e+00
   CO2             1.453e+00   1.453e+00     0.162     0.162     0.000     34.60
   (CO2)2          3.452e-02   3.452e-02    -1.462    -1.462     0.000     68.37
   HCO3-           9.072e-04   8.775e-04    -3.042    -3.057    -0.014     25.08
   CO3-2           6.586e-11   5.765e-11   -10.181   -10.239    -0.058     -3.11
H(0)          2.419e-15
   H2              1.209e-15   1.210e-15   -14.917   -14.917     0.000     15.11
O(0)          0.000e+00
   O2              0.000e+00   0.000e+00   -62.629   -62.628     0.000     30.15

------------------------------Saturation indices-------------------------------

  Phase               SI** log IAP   log K(298 K, 181 atm)

  CH4(g)          -19.50    -22.42   -2.92  CH4
  CO2(g)            1.74      0.16   -1.58  CO2	 Pressure 181.1 atm, phi 0.304
  H2(g)           -11.77    -14.92   -3.15  H2
  H2O(g)           -1.46     -0.01    1.45  H2O
  O2(g)           -59.64    -62.63   -2.99  O2

**For a gas, SI = log10(fugacity). Fugacity = pressure * phi / 1 atm.
  For ideal gases, phi = 1.

------------------
End of simulation.
------------------

-------------------------------------
Reading input data for simulation 12.
-------------------------------------

		SOLUTION 1
	 temp 25
	pressure   2.0110e+02
	EQUILIBRIUM_PHASES
	 CO2(g)   2.3034e+00
	END
-------------------------------------------
Beginning of initial solution calculations.
-------------------------------------------

Initial solution 1.	

-----------------------------Solution composition------------------------------

	Elements           Molality       Moles

	Pure water     

----------------------------Description of solution----------------------------

                                       pH  =   7.000    
                                       pe  =   4.000    
      Specific Conductance (µS/cm,  25°C)  = 0
                          Density (g/cm³)  =   1.00596
                               Volume (L)  =   0.99408
                        Viscosity (mPa s)  =   0.88789
                        Activity of water  =   1.000
                 Ionic strength (mol/kgw)  =   1.103e-07
                       Mass of water (kg)  =   1.000e+00
                 Total alkalinity (eq/kg)  =   2.053e-08
                         Temperature (°C)  =  25.00
                           Pressure (atm)  = 201.10
                  Electrical balance (eq)  =  -2.053e-08
 Percent error, 100*(Cat-|An|)/(Cat+|An|)  =  -9.30
                               Iterations  =   0
                                  Total H  = 1.110124e+02
                                  Total O  = 5.550622e+01

----------------------------Distribution of species----------------------------

                                               Log       Log       Log    mole V
   Species          Molality    Activity  Molality  Activity     Gamma   cm³/mol

   OH-             1.206e-07   1.205e-07    -6.919    -6.919    -0.000     -3.43
   H+              1.001e-07   1.000e-07    -7.000    -7.000    -0.000      0.00
   H2O             5.551e+01   1.000e+00     1.744     0.000     0.000     17.91
H(0)          1.251e-25
   H2              6.256e-26   6.256e-26   -25.204   -25.204     0.000     15.12
O(0)          0.000e+00
   O2              0.000e+00   0.000e+00   -42.042   -42.042     0.000     30.12

------------------------------Saturation indices-------------------------------

  Phase               SI** log IAP   log K(298 K, 201 atm)

  H2(g)           -22.05    -25.20   -3.15  H2
  H2O(g)           -1.44      0.00    1.44  H2O
  O2(g)           -39.04    -42.04   -3.00  O2

**For a gas, SI = log10(fugacity). Fugacity = pressure * phi / 1 atm.
  For ideal gases, phi = 1.

-----------------------------------------
Beginning of batch-reaction calculations.
-----------------------------------------

Reaction step 1.

Using solution 1.	
Using pure phase assemblage 1.	

-------------------------------Phase assemblage--------------------------------

                                                      Moles in assemblage
Phase               SI  log IAP  log K(T, P)   Initial       Final       Delta

CO2(g)            1.76     0.17     -1.59    1.000e+01   8.460e+00  -1.540e+00

-----------------------------Solution composition------------------------------

	Elements           Molality       Moles

	C                 1.540e+00   1.540e+00

----------------------------Description of solution----------------------------

                                       pH  =   3.049      Charge balance
                                       pe  =   2.827      Adjusted to redox equilibrium
      Specific Conductance (µS/cm,  25°C)  = 320
                          Density (g/cm³)  =   1.01957
                               Volume (L)  =   1.04730
                        Viscosity (mPa s)  =   0.99336
                        Activity of water  =   0.974
                 Ionic strength (mol/kgw)  =   9.223e-04
                       Mass of water (kg)  =   1.000e+00
                 Total alkalinity (eq/kg)  =   2.053e-08
                       Total CO2 (mol/kg)  =   1.540e+00
                         Temperature (°C)  =  25.00
                           Pressure (atm)  = 201.10
                  Electrical balance (eq)  =  -2.053e-08
 Percent error, 100*(Cat-|An|)/(Cat+|An|)  =  -0.00
                               Iterations  =  15
                                  Total H  = 1.110124e+02
                                  Total O  = 5.858688e+01

----------------------------Distribution of species----------------------------

                                               Log       Log       Log    mole V
   Species          Molality    Activity  Molality  Activity     Gamma   cm³/mol

   H+              9.223e-04   8.928e-04    -3.035    -3.049    -0.014      0.00
   OH-             1.361e-11   1.315e-11   -10.866   -10.881    -0.015     -3.40
   H2O             5.551e+01   9.744e-01     1.744    -0.011     0.000     17.91
C(-4)         2.744e-23
   CH4             2.744e-23   2.745e-23   -22.562   -22.561     0.000     35.71
C(4)          1.540e+00
   CO2             1.469e+00   1.469e+00     0.167     0.167     0.000     34.58
   (CO2)2          3.532e-02   3.532e-02    -1.452    -1.452     0.000     68.33
   HCO3-           9.223e-04   8.919e-04    -3.035    -3.050    -0.015     25.13
   CO3-2           6.740e-11   5.894e-11   -10.171   -10.230    -0.058     -2.95
H(0)          2.212e-15
   H2              1.106e-15   1.106e-15   -14.956   -14.956     0.000     15.12
O(0)          0.000e+00
   O2              0.000e+00   0.000e+00   -62.560   -62.560     0.000     30.12

------------------------------Saturation indices-------------------------------

  Phase               SI** log IAP   log K(298 K, 201 atm)

  CH4(g)          -19.63    -22.56   -2.93  CH4
  CO2(g)            1.76      0.17   -1.59  CO2	 Pressure 201.1 atm, phi 0.285
  H2(g)           -11.80    -14.96   -3.15  H2
  H2O(g)           -1.45     -0.01    1.44  H2O
  O2(g)           -59.56    -62.56   -3.00  O2

**For a gas, SI = log10(fugacity). Fugacity = pressure * phi / 1 atm.
  For ideal gases, phi = 1.

------------------
End of simulation.
------------------

-------------------------------------
Reading input data for simulation 13.
-------------------------------------

		SOLUTION 1
	 temp 25
	pressure   2.2110e+02
	EQUILIBRIUM_PHASES
	 CO2(g)   2.3446e+00
	END
-------------------------------------------
Beginning of initial solution calculations.
-------------------------------------------

Initial solution 1.	

-----------------------------Solution composition------------------------------

	Elements           Molality       Moles

	Pure water     

----------------------------Description of solution----------------------------

                                       pH  =   7.000    
                                       pe  =   4.000    
      Specific Conductance (µS/cm,  25°C)  = 0
                          Density (g/cm³)  =   1.00683
                               Volume (L)  =   0.99321
                        Viscosity (mPa s)  =   0.88776
                        Activity of water  =   1.000
                 Ionic strength (mol/kgw)  =   1.113e-07
                       Mass of water (kg)  =   1.000e+00
                 Total alkalinity (eq/kg)  =   2.256e-08
                         Temperature (°C)  =  25.00
                           Pressure (atm)  = 221.10
                  Electrical balance (eq)  =  -2.256e-08
 Percent error, 100*(Cat-|An|)/(Cat+|An|)  = -10.13
                               Iterations  =   0
                                  Total H  = 1.110124e+02
                                  Total O  = 5.550622e+01

----------------------------Distribution of species----------------------------

                                               Log       Log       Log    mole V
   Species          Molality    Activity  Molality  Activity     Gamma   cm³/mol

   OH-             1.226e-07   1.226e-07    -6.911    -6.912    -0.000     -3.36
   H+              1.001e-07   1.000e-07    -7.000    -7.000    -0.000      0.00
   H2O             5.551e+01   1.000e+00     1.744     0.000     0.000     17.89
H(0)          1.236e-25
   H2              6.178e-26   6.178e-26   -25.209   -25.209     0.000     15.13
O(0)          0.000e+00
   O2              0.000e+00   0.000e+00   -42.040   -42.040     0.000     30.09

------------------------------Saturation indices-------------------------------

  Phase               SI** log IAP   log K(298 K, 221 atm)

  H2(g)           -22.05    -25.21   -3.16  H2
  H2O(g)           -1.43      0.00    1.43  H2O
  O2(g)           -39.03    -42.04   -3.01  O2

**For a gas, SI = log10(fugacity). Fugacity = pressure * phi / 1 atm.
  For ideal gases, phi = 1.

-----------------------------------------
Beginning of batch-reaction calculations.
-----------------------------------------

Reaction step 1.

Using solution 1.	
Using pure phase assemblage 1.	

-------------------------------Phase assemblage--------------------------------

                                                      Moles in assemblage
Phase               SI  log IAP  log K(T, P)   Initial       Final       Delta

CO2(g)            1.77     0.17     -1.60    1.000e+01   8.443e+00  -1.557e+00

-----------------------------Solution composition------------------------------

	Elements           Molality       Moles

	C                 1.557e+00   1.557e+00

----------------------------Description of solution----------------------------

                                       pH  =   3.042      Charge balance
                                       pe  =  14.810      Adjusted to redox equilibrium
      Specific Conductance (µS/cm,  25°C)  = 325
                          Density (g/cm³)  =   1.02059
                               Volume (L)  =   1.04698
                        Viscosity (mPa s)  =   0.99438
                        Activity of water  =   0.974
                 Ionic strength (mol/kgw)  =   9.372e-04
                       Mass of water (kg)  =   1.000e+00
                 Total alkalinity (eq/kg)  =   2.256e-08
                       Total CO2 (mol/kg)  =   1.557e+00
                         Temperature (°C)  =  25.00
                           Pressure (atm)  = 221.10
                  Electrical balance (eq)  =  -2.256e-08
 Percent error, 100*(Cat-|An|)/(Cat+|An|)  =  -0.00
                               Iterations  =  15
                                  Total H  = 1.110124e+02
                                  Total O  = 5.862063e+01

----------------------------Distribution of species----------------------------

                                               Log       Log       Log    mole V
   Species          Molality    Activity  Molality  Activity     Gamma   cm³/mol

   H+              9.372e-04   9.071e-04    -3.028    -3.042    -0.014      0.00
   OH-             1.362e-11   1.316e-11   -10.866   -10.881    -0.015     -3.34
   H2O             5.551e+01   9.741e-01     1.744    -0.011     0.000     17.89
C(-4)         0.000e+00
   CH4             0.000e+00   0.000e+00  -118.376  -118.376     0.000     35.74
C(4)          1.557e+00
   CO2             1.484e+00   1.484e+00     0.171     0.172     0.000     34.56
   (CO2)2          3.608e-02   3.609e-02    -1.443    -1.443     0.000     68.29
   HCO3-           9.372e-04   9.061e-04    -3.028    -3.043    -0.015     25.19
   CO3-2           6.896e-11   6.025e-11   -10.161   -10.220    -0.059     -2.79
H(0)          2.442e-39
   H2              1.221e-39   1.221e-39   -38.913   -38.913     0.000     15.13
O(0)          4.426e-15
   O2              2.213e-15   2.213e-15   -14.655   -14.655     0.000     30.09

------------------------------Saturation indices-------------------------------

  Phase               SI** log IAP   log K(298 K, 221 atm)

  CH4(g)         -115.43   -118.38   -2.94  CH4
  CO2(g)            1.77      0.17   -1.60  CO2	 Pressure 221.1 atm, phi 0.269
  H2(g)           -35.75    -38.91   -3.16  H2
  H2O(g)           -1.44     -0.01    1.43  H2O
  O2(g)           -11.65    -14.65   -3.01  O2

**For a gas, SI = log10(fugacity). Fugacity = pressure * phi / 1 atm.
  For ideal gases, phi = 1.

------------------
End of simulation.
------------------

-------------------------------------
Reading input data for simulation 14.
-------------------------------------

		SOLUTION 1
	 temp 25
	pressure   2.4110e+02
	EQUILIBRIUM_PHASES
	 CO2(g)   2.3822e+00
	END
-------------------------------------------
Beginning of initial solution calculations.
-------------------------------------------

Initial solution 1.	

-----------------------------Solution composition------------------------------

	Elements           Molality       Moles

	Pure water     

----------------------------Description of solution----------------------------

                                       pH  =   7.000    
                                       pe  =   4.000    
      Specific Conductance (µS/cm,  25°C)  = 0
                          Density (g/cm³)  =   1.00771
                               Volume (L)  =   0.99235
                        Viscosity (mPa s)  =   0.88763
                        Activity of water  =   1.000
                 Ionic strength (mol/kgw)  =   1.124e-07
                       Mass of water (kg)  =   1.000e+00
                 Total alkalinity (eq/kg)  =   2.461e-08
                         Temperature (°C)  =  25.00
                           Pressure (atm)  = 241.10
                  Electrical balance (eq)  =  -2.461e-08
 Percent error, 100*(Cat-|An|)/(Cat+|An|)  = -10.95
                               Iterations  =   0
                                  Total H  = 1.110124e+02
                                  Total O  = 5.550622e+01

----------------------------Distribution of species----------------------------

                                               Log       Log       Log    mole V
   Species          Molality    Activity  Molality  Activity     Gamma   cm³/mol

   OH-             1.247e-07   1.246e-07    -6.904    -6.904    -0.000     -3.30
   H+              1.001e-07   1.000e-07    -7.000    -7.000    -0.000      0.00
   H2O             5.551e+01   1.000e+00     1.744     0.000     0.000     17.88
H(0)          1.220e-25
   H2              6.102e-26   6.102e-26   -25.215   -25.215     0.000     15.14
O(0)          0.000e+00
   O2              0.000e+00   0.000e+00   -42.038   -42.038     0.000     30.07

------------------------------Saturation indices-------------------------------

  Phase               SI** log IAP   log K(298 K, 241 atm)

  H2(g)           -22.05    -25.21   -3.16  H2
  H2O(g)           -1.43      0.00    1.43  H2O
  O2(g)           -39.02    -42.04   -3.02  O2

**For a gas, SI = log10(fugacity). Fugacity = pressure * phi / 1 atm.
  For ideal gases, phi = 1.

-----------------------------------------
Beginning of batch-reaction calculations.
-----------------------------------------

Reaction step 1.

Using solution 1.	
Using pure phase assemblage 1.	

[...]
   H2O             5.551e+01   9.761e-01     1.744    -0.011     0.000     18.42
C(-4)         1.854e-27
   CH4             1.854e-27   1.854e-27   -26.732   -26.732     0.000     40.57
C(4)          1.548e+00
   CO2             1.261e+00   1.261e+00     0.101     0.101     0.000     37.86
   (CO2)2          1.432e-01   1.432e-01    -0.844    -0.844     0.000     74.88
   HCO3-           8.793e-04   8.468e-04    -3.056    -3.072    -0.016     26.08
   CO3-2           1.248e-10   1.073e-10    -9.904    -9.969    -0.065     -3.15
H(0)          1.800e-14
   H2              8.998e-15   9.000e-15   -14.046   -14.046     0.000     17.75
O(0)          0.000e+00
   O2              0.000e+00   0.000e+00   -45.508   -45.508     0.000     32.62

------------------------------Saturation indices-------------------------------

  Phase               SI** log IAP   log K(373 K, 441 atm)

  CH4(g)          -23.47    -26.73   -3.26  CH4
  CO2(g)            2.32      0.10   -2.22  CO2	 Pressure 441.1 atm, phi 0.469
  H2(g)           -10.85    -14.05   -3.20  H2
  H2O(g)            0.10     -0.01   -0.11  H2O
  O2(g)           -42.19    -45.51   -3.32  O2

**For a gas, SI = log10(fugacity). Fugacity = pressure * phi / 1 atm.
  For ideal gases, phi = 1.

------------------
End of simulation.
------------------

--------------------------------------
Reading input data for simulation 109.
--------------------------------------

		SOLUTION 1
	 temp 100
	pressure   4.6110e+02
	EQUILIBRIUM_PHASES
	 CO2(g)   2.6638e+00
	END
-------------------------------------------
Beginning of initial solution calculations.
-------------------------------------------

Initial solution 1.	

-----------------------------Solution composition------------------------------

	Elements           Molality       Moles

	Pure water     

----------------------------Description of solution----------------------------

                                       pH  =   7.000    
                                       pe  =   4.000    
      Specific Conductance (µS/cm, 100°C)  = 3
                          Density (g/cm³)  =   0.97897
                               Volume (L)  =   1.02148
                        Viscosity (mPa s)  =   0.29398
                        Activity of water  =   1.000
                 Ionic strength (mol/kgw)  =   4.337e-06
                       Mass of water (kg)  =   1.000e+00
                 Total alkalinity (eq/kg)  =   8.474e-06
                         Temperature (°C)  = 100.00
                           Pressure (atm)  = 461.10
                  Electrical balance (eq)  =  -8.474e-06
 Percent error, 100*(Cat-|An|)/(Cat+|An|)  = -97.69
                               Iterations  =   3
                                  Total H  = 1.110124e+02
                                  Total O  = 5.550623e+01

----------------------------Distribution of species----------------------------

                                               Log       Log       Log    mole V
   Species          Molality    Activity  Molality  Activity     Gamma   cm³/mol

   OH-             8.574e-06   8.550e-06    -5.067    -5.068    -0.001     -7.69
   H+              1.003e-07   1.000e-07    -6.999    -7.000    -0.001      0.00
   H2O             5.551e+01   1.000e+00     1.744    -0.000     0.000     18.40
H(0)          5.973e-26
   H2              2.987e-26   2.987e-26   -25.525   -25.525     0.000     17.73
O(0)          5.806e-23
   O2              2.903e-23   2.903e-23   -22.537   -22.537     0.000     32.57

------------------------------Saturation indices-------------------------------

  Phase               SI** log IAP   log K(373 K, 461 atm)

  H2(g)           -22.32    -25.52   -3.20  H2
  H2O(g)            0.12     -0.00   -0.12  H2O
  O2(g)           -19.21    -22.54   -3.33  O2

**For a gas, SI = log10(fugacity). Fugacity = pressure * phi / 1 atm.
  For ideal gases, phi = 1.

-----------------------------------------
Beginning of batch-reaction calculations.
-----------------------------------------

Reaction step 1.

Using solution 1.	
Using pure phase assemblage 1.	

-------------------------------Phase assemblage--------------------------------

                                                      Moles in assemblage
Phase               SI  log IAP  log K(T, P)   Initial       Final       Delta

CO2(g)            2.33     0.11     -2.23    1.000e+01   8.430e+00  -1.570e+00

-----------------------------Solution composition------------------------------

	Elements           Molality       Moles

	C                 1.570e+00   1.570e+00

----------------------------Description of solution----------------------------

                                       pH  =   3.069      Charge balance
                                       pe  =   2.468      Adjusted to redox equilibrium
      Specific Conductance (µS/cm, 100°C)  = 565
                          Density (g/cm³)  =   0.98928
                               Volume (L)  =   1.08067
                        Viscosity (mPa s)  =   0.30144
                        Activity of water  =   0.976
                 Ionic strength (mol/kgw)  =   8.881e-04
                       Mass of water (kg)  =   1.000e+00
                 Total alkalinity (eq/kg)  =   8.474e-06
                       Total CO2 (mol/kg)  =   1.570e+00
                         Temperature (°C)  = 100.00
                           Pressure (atm)  = 461.10
                  Electrical balance (eq)  =  -8.474e-06
 Percent error, 100*(Cat-|An|)/(Cat+|An|)  =  -0.48
                               Iterations  =  15
                                  Total H  = 1.110124e+02
                                  Total O  = 5.864573e+01

----------------------------Distribution of species----------------------------

                                               Log       Log       Log    mole V
   Species          Molality    Activity  Molality  Activity     Gamma   cm³/mol

   H+              8.839e-04   8.521e-04    -3.054    -3.069    -0.016      0.00
   OH-             1.017e-09   9.784e-10    -8.993    -9.009    -0.017     -7.65
   H2O             5.551e+01   9.758e-01     1.744    -0.011     0.000     18.40
C(-4)         1.156e-29
   CH4             1.156e-29   1.156e-29   -28.937   -28.937     0.000     40.55
C(4)          1.570e+00
   CO2             1.275e+00   1.276e+00     0.106     0.106     0.000     37.81
   (CO2)2          1.467e-01   1.467e-01    -0.834    -0.834     0.000     74.78
   HCO3-           8.924e-04   8.592e-04    -3.049    -3.066    -0.016     26.15
   CO3-2           1.271e-10   1.092e-10    -9.896    -9.962    -0.066     -2.96
H(0)          5.017e-15
   H2              2.509e-15   2.509e-15   -14.601   -14.600     0.000     17.73
O(0)          0.000e+00
   O2              0.000e+00   0.000e+00   -44.407   -44.407     0.000     32.57

------------------------------Saturation indices-------------------------------

  Phase               SI** log IAP   log K(373 K, 461 atm)

  CH4(g)          -25.67    -28.94   -3.27  CH4
  CO2(g)            2.33      0.11   -2.23  CO2	 Pressure 461.1 atm, phi 0.465
  H2(g)           -11.40    -14.60   -3.20  H2
  H2O(g)            0.10     -0.01   -0.12  H2O
  O2(g)           -41.08    -44.41   -3.33  O2

**For a gas, SI = log10(fugacity). Fugacity = pressure * phi / 1 atm.
  For ideal gases, phi = 1.

------------------
End of simulation.
------------------

--------------------------------------
Reading input data for simulation 110.
--------------------------------------

		SOLUTION 1
	 temp 100
	pressure   4.8110e+02
	EQUILIBRIUM_PHASES
	 CO2(g)   2.6822e+00
	END
-------------------------------------------
Beginning of initial solution calculations.
-------------------------------------------

Initial solution 1.	

-----------------------------Solution composition------------------------------

	Elements           Molality       Moles

	Pure water     

----------------------------Description of solution----------------------------

                                       pH  =   7.000    
                                       pe  =   4.000    
      Specific Conductance (µS/cm, 100°C)  = 3
                          Density (g/cm³)  =   0.97981
                               Volume (L)  =   1.02061
                        Viscosity (mPa s)  =   0.29451
                        Activity of water  =   1.000
                 Ionic strength (mol/kgw)  =   4.414e-06
                       Mass of water (kg)  =   1.000e+00
                 Total alkalinity (eq/kg)  =   8.628e-06
                         Temperature (°C)  = 100.00
                           Pressure (atm)  = 481.10
                  Electrical balance (eq)  =  -8.628e-06
 Percent error, 100*(Cat-|An|)/(Cat+|An|)  = -97.73
                               Iterations  =   3
                                  Total H  = 1.110124e+02
                                  Total O  = 5.550623e+01

----------------------------Distribution of species----------------------------

                                               Log       Log       Log    mole V
   Species          Molality    Activity  Molality  Activity     Gamma   cm³/mol

   OH-             8.728e-06   8.704e-06    -5.059    -5.060    -0.001     -7.76
   H+              1.003e-07   1.000e-07    -6.999    -7.000    -0.001      0.00
   H2O             5.551e+01   1.000e+00     1.744    -0.000     0.000     18.39
H(0)          5.906e-26
   H2              2.953e-26   2.953e-26   -25.530   -25.530     0.000     17.71
O(0)          5.824e-23
   O2              2.912e-23   2.912e-23   -22.536   -22.536     0.000     32.52

------------------------------Saturation indices-------------------------------

  Phase               SI** log IAP   log K(373 K, 481 atm)

  H2(g)           -22.32    -25.53   -3.21  H2
  H2O(g)            0.12     -0.00   -0.12  H2O
  O2(g)           -19.20    -22.54   -3.34  O2

**For a gas, SI = log10(fugacity). Fugacity = pressure * phi / 1 atm.
  For ideal gases, phi = 1.

-----------------------------------------
Beginning of batch-reaction calculations.
-----------------------------------------

Reaction step 1.

Using solution 1.	
Using pure phase assemblage 1.	

-------------------------------Phase assemblage--------------------------------

                                                      Moles in assemblage
Phase               SI  log IAP  log K(T, P)   Initial       Final       Delta

CO2(g)            2.35     0.11     -2.24    1.000e+01   8.409e+00  -1.591e+00

-----------------------------Solution composition------------------------------

	Elements           Molality       Moles

	C                 1.591e+00   1.591e+00

----------------------------Description of solution----------------------------

                                       pH  =   3.063      Charge balance
                                       pe  =   9.922      Adjusted to redox equilibrium
      Specific Conductance (µS/cm, 100°C)  = 572
                          Density (g/cm³)  =   0.99028
                               Volume (L)  =   1.08051
                        Viscosity (mPa s)  =   0.30208
                        Activity of water  =   0.975
                 Ionic strength (mol/kgw)  =   9.009e-04
                       Mass of water (kg)  =   1.000e+00
                 Total alkalinity (eq/kg)  =   8.628e-06
                       Total CO2 (mol/kg)  =   1.591e+00
                         Temperature (°C)  = 100.00
                           Pressure (atm)  = 481.10
                  Electrical balance (eq)  =  -8.628e-06
 Percent error, 100*(Cat-|An|)/(Cat+|An|)  =  -0.48
                               Iterations  =  12
                                  Total H  = 1.110124e+02
                                  Total O  = 5.868745e+01

----------------------------Distribution of species----------------------------

                                               Log       Log       Log    mole V
   Species          Molality    Activity  Molality  Activity     Gamma   cm³/mol

   H+              8.966e-04   8.643e-04    -3.047    -3.063    -0.016      0.00
   OH-             1.020e-09   9.817e-10    -8.991    -9.008    -0.017     -7.71
   H2O             5.551e+01   9.755e-01     1.744    -0.011     0.000     18.39
C(-4)         0.000e+00
   CH4             0.000e+00   0.000e+00   -88.522   -88.522     0.000     40.53
C(4)          1.591e+00
   CO2             1.290e+00   1.290e+00     0.110     0.111     0.000     37.76
   (CO2)2          1.501e-01   1.501e-01    -0.824    -0.824     0.000     74.68
   HCO3-           9.053e-04   8.715e-04    -3.043    -3.060    -0.017     26.22
   CO3-2           1.294e-10   1.111e-10    -9.888    -9.954    -0.066     -2.77
H(0)          6.322e-30
   H2              3.161e-30   3.162e-30   -29.500   -29.500     0.000     17.71
O(0)          4.834e-15
   O2              2.417e-15   2.418e-15   -14.617   -14.617     0.000     32.52

------------------------------Saturation indices-------------------------------

  Phase               SI** log IAP   log K(373 K, 481 atm)

  CH4(g)          -85.24    -88.52   -3.28  CH4
  CO2(g)            2.35      0.11   -2.24  CO2	 Pressure 481.1 atm, phi 0.462
  H2(g)           -26.29    -29.50   -3.21  H2
  H2O(g)            0.11     -0.01   -0.12  H2O
  O2(g)           -11.28    -14.62   -3.34  O2

**For a gas, SI = log10(fugacity). Fugacity = pressure * phi / 1 atm.
  For ideal gases, phi = 1.

------------------
End of simulation.
------------------

--------------------------------------
Reading input data for simulation 111.
--------------------------------------

		SOLUTION 1
	 temp 100
	pressure   5.0110e+02
	EQUILIBRIUM_PHASES
	 CO2(g)   2.6999e+00
	END
-------------------------------------------
Beginning of initial solution calculations.
-------------------------------------------

Initial solution 1.	

-----------------------------Solution composition------------------------------

	Elements           Molality       Moles

	Pure water     

----------------------------Description of solution----------------------------

                                       pH  =   7.000    
                                       pe  =   4.000    
      Specific Conductance (µS/cm, 100°C)  = 3
                          Density (g/cm³)  =   0.98064
                               Volume (L)  =   1.01974
                        Viscosity (mPa s)  =   0.29503
                        Activity of water  =   1.000
                 Ionic strength (mol/kgw)  =   4.493e-06
                       Mass of water (kg)  =   1.000e+00
                 Total alkalinity (eq/kg)  =   8.785e-06
                         Temperature (°C)  = 100.00
                           Pressure (atm)  = 501.10
                  Electrical balance (eq)  =  -8.785e-06
 Percent error, 100*(Cat-|An|)/(Cat+|An|)  = -97.77
                               Iterations  =   3
                                  Total H  = 1.110124e+02
                                  Total O  = 5.550623e+01

----------------------------Distribution of species----------------------------

                                               Log       Log       Log    mole V
   Species          Molality    Activity  Molality  Activity     Gamma   cm³/mol

   OH-             8.885e-06   8.860e-06    -5.051    -5.053    -0.001     -7.82
   H+              1.003e-07   1.000e-07    -6.999    -7.000    -0.001      0.00
   H2O             5.551e+01   1.000e+00     1.744    -0.000     0.000     18.37
H(0)          5.840e-26
   H2              2.920e-26   2.920e-26   -25.535   -25.535     0.000     17.69
O(0)          5.842e-23
   O2              2.921e-23   2.921e-23   -22.534   -22.534     0.000     32.48

------------------------------Saturation indices-------------------------------

  Phase               SI** log IAP   log K(373 K, 501 atm)

  H2(g)           -22.32    -25.53   -3.21  H2
  H2O(g)            0.13     -0.00   -0.13  H2O
  O2(g)           -19.19    -22.53   -3.34  O2

**For a gas, SI = log10(fugacity). Fugacity = pressure * phi / 1 atm.
  For ideal gases, phi = 1.

-----------------------------------------
Beginning of batch-reaction calculations.
-----------------------------------------

Reaction step 1.

Using solution 1.	
Using pure phase assemblage 1.	

-------------------------------Phase assemblage--------------------------------

                                                      Moles in assemblage
Phase               SI  log IAP  log K(T, P)   Initial       Final       Delta

CO2(g)            2.36     0.12     -2.25    1.000e+01   8.389e+00  -1.611e+00

-----------------------------Solution composition------------------------------

	Elements           Molality       Moles

	C                 1.611e+00   1.611e+00

----------------------------Description of solution----------------------------

                                       pH  =   3.057      Charge balance
                                       pe  =   2.265      Adjusted to redox equilibrium
      Specific Conductance (µS/cm, 100°C)  = 579
                          Density (g/cm³)  =   0.99127
                               Volume (L)  =   1.08033
                        Viscosity (mPa s)  =   0.30272
                        Activity of water  =   0.975
                 Ionic strength (mol/kgw)  =   9.137e-04
                       Mass of water (kg)  =   1.000e+00
                 Total alkalinity (eq/kg)  =   8.785e-06
                       Total CO2 (mol/kg)  =   1.611e+00
                         Temperature (°C)  = 100.00
                           Pressure (atm)  = 501.10
                  Electrical balance (eq)  =  -8.785e-06
 Percent error, 100*(Cat-|An|)/(Cat+|An|)  =  -0.48
                               Iterations  =  16
                                  Total H  = 1.110124e+02
                                  Total O  = 5.872808e+01

----------------------------Distribution of species----------------------------

                                               Log       Log       Log    mole V
   Species          Molality    Activity  Molality  Activity     Gamma   cm³/mol

   H+              9.093e-04   8.763e-04    -3.041    -3.057    -0.016      0.00
   OH-             1.024e-09   9.853e-10    -8.990    -9.006    -0.017     -7.77
   H2O             5.551e+01   9.752e-01     1.744    -0.011     0.000     18.37
C(-4)         5.926e-28
   CH4             5.926e-28   5.928e-28   -27.227   -27.227     0.000     40.51
C(4)          1.611e+00
   CO2             1.303e+00   1.304e+00     0.115     0.115     0.000     37.71
   (CO2)2          1.533e-01   1.534e-01    -0.814    -0.814     0.000     74.58
   HCO3-           9.181e-04   8.836e-04    -3.037    -3.054    -0.017     26.29
   CO3-2           1.317e-10   1.130e-10    -9.880    -9.947    -0.066     -2.58
H(0)          1.322e-14
   H2              6.611e-15   6.613e-15   -14.180   -14.180     0.000     17.69
O(0)          0.000e+00
   O2              0.000e+00   0.000e+00   -45.266   -45.266     0.000     32.48

------------------------------Saturation indices-------------------------------

  Phase               SI** log IAP   log K(373 K, 501 atm)

  CH4(g)          -23.94    -27.23   -3.29  CH4
  CO2(g)            2.36      0.12   -2.25  CO2	 Pressure 501.1 atm, phi 0.459
  H2(g)           -10.97    -14.18   -3.21  H2
  H2O(g)            0.11     -0.01   -0.13  H2O
  O2(g)           -41.92    -45.27   -3.34  O2

**For a gas, SI = log10(fugacity). Fugacity = pressure * phi / 1 atm.
  For ideal gases, phi = 1.

------------------
End of simulation.
------------------

--------------------------------------
Reading input data for simulation 112.
--------------------------------------

	END
------------------
End of simulation.
------------------

--------------------------------------
Reading input data for simulation 113.
--------------------------------------

