WARNING: Database file from DATABASE keyword is used; command line argument ignored.
   Input file: CO2_4M_NaCl
  Output file: CO2_4M_NaCl.out
Database file: ../database/pitzer.dat

------------------
Reading data base.
------------------

	SOLUTION_MASTER_SPECIES
	SOLUTION_SPECIES
	PHASES
	PITZER
	GAS_BINARY_PARAMETERS
	EXCHANGE_MASTER_SPECIES
	EXCHANGE_SPECIES
	SURFACE_MASTER_SPECIES
	SURFACE_SPECIES
	MEAN_GAMMAS
	END
------------------------------------
Reading input data for simulation 1.
------------------------------------

	DATABASE ../database/pitzer.dat
	SELECTED_OUTPUT 101
	    file                 CO2_4M_NaCl_101.sel
	USER_PUNCH 101
	    headings Mu SC
	    start
	10 PUNCH STR_F$(MU, 20, 12)
	20 PUNCH STR_F$(SC, 20, 10)
	    end
	SOLUTION 1
	 pH 7 charge
	 Na 4e3
	 Cl 4e3
	 temp 80
	GAS_PHASE 1
	     fixed_volume
	     CO2(g) 0
	     H2O(g) 0
	REACTION
	 CO2 1
	 5*0.2 5*1
	INCREMENTAL_REACTIONS true
	USER_GRAPH
	 -plot_csv_file CO2_4M_NaCl.dat
	 -axis_titles "CO2 Pressure / bar" "CO2 solubility in 4 M NaCl / (mol/kgw)"
	 -connect_simulations false
	 -axis_scale x_axis 0 100
	 10 graph_x pr_p("CO2(g)") * 1.013
	 20 graph_y tot("C")
	END
-------------------------------------------
Beginning of initial solution calculations.
-------------------------------------------

Initial solution 1.	

-----------------------------Solution composition------------------------------

	Elements           Molality       Moles

	Cl                4.000e+00   4.000e+00
	Na                4.000e+00   4.000e+00

----------------------------Description of solution----------------------------

                                       pH  =   5.950      Charge balance
                                       pe  =   4.000    
      Specific Conductance (µS/cm,  80°C)  = 454419
                          Density (g/cm³)  =   1.10691
                               Volume (L)  =   1.11461
                        Viscosity (mPa s)  =   0.56132
                        Activity of water  =   0.852
                 Ionic strength (mol/kgw)  =   4.000e+00
                       Mass of water (kg)  =   1.000e+00
                 Total alkalinity (eq/kg)  =   4.525e-15
                         Temperature (°C)  =  80.00
                  Electrical balance (eq)  =   5.702e-13
 Percent error, 100*(Cat-|An|)/(Cat+|An|)  =   0.00
                               Iterations  =   8
                         Gamma iterations  =   4
                      Osmotic coefficient  =   1.11480
                         Density of water  =   0.97179
                                  Total H  = 1.110124e+02
                                  Total O  = 5.550622e+01

----------------------------Distribution of species----------------------------

                                                    MacInnes  MacInnes
                                MacInnes       Log       Log       Log    mole V
   Species          Molality    Activity  Molality  Activity     Gamma   cm³/mol

   OH-             4.909e-07   1.955e-07    -6.309    -6.709    -0.400      2.88
   H+              4.909e-07   1.123e-06    -6.309    -5.950     0.359      0.00
   H2O             5.551e+01   8.516e-01     1.744    -0.070     0.000     18.54
Cl            4.000e+00
   Cl-             4.000e+00   2.342e+00     0.602     0.370    -0.233     19.85
Na            4.000e+00
   Na+             4.000e+00   4.022e+00     0.602     0.604     0.002      1.54

------------------------------Saturation indices-------------------------------

  Phase               SI** log IAP   log K(353 K,   1 atm)

  H2O(g)           -0.40     -0.07    0.33  H2O
  Halite           -0.64      0.97    1.61  NaCl

**For a gas, SI = log10(fugacity). Fugacity = pressure * phi / 1 atm.
  For ideal gases, phi = 1.

-----------------------------------------
Beginning of batch-reaction calculations.
-----------------------------------------

Reaction step 1.

Using solution 1.	
Using gas phase 1.	
Using reaction 1.	

Reaction 1.	

	  2.000e-01 moles of the following reaction have been added:

	                 Relative
	Reactant            moles

	CO2                  1.00000

	                 Relative
	Element             moles
	C                    1.00000
	O                    2.00000

-----------------------------------Gas phase-----------------------------------

Total pressure:  5.21      atmospheres          (Peng-Robinson calculation)
    Gas volume:   1.00e+00 liters
  Molar volume:   5.46e+00 liters/mole
   P * Vm / RT:  0.98177  (Compressibility Factor Z) 

                                                        Moles in gas
                                            ----------------------------------
Component         log P           P    phi     Initial       Final       Delta

CO2(g)             0.68   4.800e+00  0.983   0.000e+00   1.687e-01   1.687e-01
H2O(g)            -0.39   4.094e-01  0.966   0.000e+00   1.439e-02   1.439e-02

-----------------------------Solution composition------------------------------

	Elements           Molality       Moles

	C                 3.131e-02   3.130e-02
	Cl                4.001e+00   4.000e+00
	Na                4.001e+00   4.000e+00

----------------------------Description of solution----------------------------

                                       pH  =   3.360      Charge balance
                                       pe  =   4.000      Adjusted to redox equilibrium
      Specific Conductance (µS/cm,  80°C)  = 452920
                          Density (g/cm³)  =   1.10717
                               Volume (L)  =   1.11536
                        Viscosity (mPa s)  =   0.56254
                        Activity of water  =   0.851
                 Ionic strength (mol/kgw)  =   4.001e+00
                       Mass of water (kg)  =   9.997e-01
                 Total alkalinity (eq/kg)  =   7.974e-15
                       Total CO2 (mol/kg)  =   3.131e-02
                         Temperature (°C)  =  80.00
                           Pressure (atm)  =  5.21
                  Electrical balance (eq)  =   5.658e-13
 Percent error, 100*(Cat-|An|)/(Cat+|An|)  =   0.00
                               Iterations  =  32
                         Gamma iterations  =   4
                      Osmotic coefficient  =   1.11698
                         Density of water  =   0.97198
                                  Total H  = 1.109837e+02
                                  Total O  = 5.555443e+01

----------------------------Distribution of species----------------------------

                                                    MacInnes  MacInnes
                                MacInnes       Log       Log       Log    mole V
   Species          Molality    Activity  Molality  Activity     Gamma   cm³/mol

   H+              1.909e-04   4.368e-04    -3.719    -3.360     0.359      0.00
   OH-             1.263e-09   5.032e-10    -8.898    -9.298    -0.400      2.86
   H2O             5.551e+01   8.507e-01     1.744    -0.070     0.000     18.54
C(4)          3.131e-02
   CO2             3.112e-02   5.881e-02    -1.507    -1.231     0.276     37.66
   HCO3-           1.909e-04   5.405e-05    -3.719    -4.267    -0.548     29.70
   CO3-2           4.202e-10   9.081e-12    -9.377   -11.042    -1.665      4.97
Cl            4.001e+00
   Cl-             4.001e+00   2.343e+00     0.602     0.370    -0.232     19.85
Na            4.001e+00
   Na+             4.001e+00   4.044e+00     0.602     0.607     0.005      1.55

------------------------------Saturation indices-------------------------------

  Phase               SI** log IAP   log K(353 K,   5 atm)

  CO2(g)            0.67     -1.23   -1.90  CO2	 Pressure   4.8 atm, phi 0.983
  H2O(g)           -0.40     -0.07    0.33  H2O	 Pressure   0.4 atm, phi 0.966
  Halite           -0.63      0.98    1.61  NaCl
  Nahcolite        -3.05    -13.79  -10.74  NaHCO3
  Natron           -9.69    -10.53   -0.84  Na2CO3:10H2O
  Trona           -12.38    -23.76  -11.38  Na3H(CO3)2:2H2O

**For a gas, SI = log10(fugacity). Fugacity = pressure * phi / 1 atm.
  For ideal gases, phi = 1.

Reaction step 2.

Using solution 1.	
Using gas phase 1.	
Using reaction 1.	

Reaction 1.	

	  2.000e-01 moles of the following reaction have been added:

	                 Relative
	Reactant            moles

	CO2                  1.00000

	                 Relative
	Element             moles
	C                    1.00000
	O                    2.00000

-----------------------------------Gas phase-----------------------------------

Total pressure:  9.92      atmospheres          (Peng-Robinson calculation)
    Gas volume:   1.00e+00 liters
  Molar volume:   2.82e+00 liters/mole
   P * Vm / RT:  0.96633  (Compressibility Factor Z) 

                                                        Moles in gas
                                            ----------------------------------
Component         log P           P    phi     Initial       Final       Delta

CO2(g)             0.98   9.500e+00  0.968   1.687e-01   3.393e-01   1.706e-01
H2O(g)            -0.37   4.224e-01  0.938   1.439e-02   1.508e-02   6.925e-04

-----------------------------Solution composition------------------------------

	Elements           Molality       Moles

	C                 6.076e-02   6.074e-02
	Cl                4.001e+00   4.000e+00
	Na                4.001e+00   4.000e+00

----------------------------Description of solution----------------------------

                                       pH  =   3.216      Charge balance
                                       pe  =   4.000      Adjusted to redox equilibrium
      Specific Conductance (µS/cm,  80°C)  = 451442
                          Density (g/cm³)  =   1.10741
                               Volume (L)  =   1.11627
                        Viscosity (mPa s)  =   0.56365
                        Activity of water  =   0.850
                 Ionic strength (mol/kgw)  =   4.001e+00
                       Mass of water (kg)  =   9.997e-01
                 Total alkalinity (eq/kg)  =   2.484e-12
                       Total CO2 (mol/kg)  =   6.076e-02
                         Temperature (°C)  =  80.00
                           Pressure (atm)  =  9.92
                  Electrical balance (eq)  =  -1.335e-10
 Percent error, 100*(Cat-|An|)/(Cat+|An|)  =  -0.00
                               Iterations  =  23
                         Gamma iterations  =   3
                      Osmotic coefficient  =   1.11896
                         Density of water  =   0.97219
                                  Total H  = 1.109823e+02
                                  Total O  = 5.561262e+01

----------------------------Distribution of species----------------------------

                                                    MacInnes  MacInnes
                                MacInnes       Log       Log       Log    mole V
   Species          Molality    Activity  Molality  Activity     Gamma   cm³/mol

   H+              2.662e-04   6.088e-04    -3.575    -3.216     0.359      0.00
   OH-             9.075e-10   3.616e-10    -9.042    -9.442    -0.400      2.84
   H2O             5.551e+01   8.500e-01     1.744    -0.071     0.000     18.53
C(4)          6.076e-02
   CO2             6.049e-02   1.139e-01    -1.218    -0.943     0.275     37.65
   HCO3-           2.662e-04   7.538e-05    -3.575    -4.123    -0.548     29.71
   CO3-2           4.215e-10   9.122e-12    -9.375   -11.040    -1.665      5.02
Cl            4.001e+00
   Cl-             4.001e+00   2.343e+00     0.602     0.370    -0.232     19.85
Na            4.001e+00
   Na+             4.001e+00   4.064e+00     0.602     0.609     0.007      1.57

------------------------------Saturation indices-------------------------------

  Phase               SI** log IAP   log K(353 K,  10 atm)

  CO2(g)            0.96     -0.94   -1.91  CO2	 Pressure   9.5 atm, phi 0.968
  H2O(g)           -0.40     -0.07    0.33  H2O	 Pressure   0.4 atm, phi 0.938
  Halite           -0.63      0.98    1.61  NaCl
  Nahcolite        -2.91    -13.65  -10.74  NaHCO3
  Natron           -9.68    -10.53   -0.85  Na2CO3:10H2O
  Trona           -12.23    -23.61  -11.38  Na3H(CO3)2:2H2O

**For a gas, SI = log10(fugacity). Fugacity = pressure * phi / 1 atm.
  For ideal gases, phi = 1.

Reaction step 3.

Using solution 1.	
Using gas phase 1.	
Using reaction 1.	

Reaction 1.	

	  2.000e-01 moles of the following reaction have been added:

	                 Relative
	Reactant            moles

	CO2                  1.00000

	                 Relative
	Element             moles
	C                    1.00000
	O                    2.00000

-----------------------------------Gas phase-----------------------------------

Total pressure: 14.53      atmospheres          (Peng-Robinson calculation)
    Gas volume:   1.00e+00 liters
  Molar volume:   1.90e+00 liters/mole
   P * Vm / RT:  0.95109  (Compressibility Factor Z) 

                                                        Moles in gas
                                            ----------------------------------
Component         log P           P    phi     Initial       Final       Delta

CO2(g)             1.15   1.410e+01  0.954   3.393e-01   5.115e-01   1.723e-01
H2O(g)            -0.36   4.356e-01  0.912   1.508e-02   1.580e-02   7.226e-04

-----------------------------Solution composition------------------------------

	Elements           Molality       Moles

	C                 8.850e-02   8.848e-02
	Cl                4.001e+00   4.000e+00
	Na                4.001e+00   4.000e+00

----------------------------Description of solution----------------------------

                                       pH  =   3.134      Charge balance
                                       pe  =   4.000      Adjusted to redox equilibrium
      Specific Conductance (µS/cm,  80°C)  = 450056
                          Density (g/cm³)  =   1.10765
                               Volume (L)  =   1.11713
                        Viscosity (mPa s)  =   0.56469
                        Activity of water  =   0.849
                 Ionic strength (mol/kgw)  =   4.001e+00
                       Mass of water (kg)  =   9.997e-01
                 Total alkalinity (eq/kg)  =   2.611e-12
                       Total CO2 (mol/kg)  =   8.850e-02
                         Temperature (°C)  =  80.00
                           Pressure (atm)  = 14.53
                  Electrical balance (eq)  =  -1.336e-10
 Percent error, 100*(Cat-|An|)/(Cat+|An|)  =  -0.00
                               Iterations  =  14
                         Gamma iterations  =   3
                      Osmotic coefficient  =   1.12079
                         Density of water  =   0.97240
                                  Total H  = 1.109808e+02
                                  Total O  = 5.566737e+01

----------------------------Distribution of species----------------------------

                                                    MacInnes  MacInnes
                                MacInnes       Log       Log       Log    mole V
   Species          Molality    Activity  Molality  Activity     Gamma   cm³/mol

   H+              3.213e-04   7.349e-04    -3.493    -3.134     0.359      0.00
   OH-             7.527e-10   3.001e-10    -9.123    -9.523    -0.399      2.82
   H2O             5.551e+01   8.493e-01     1.744    -0.071     0.000     18.53
C(4)          8.850e-02
   CO2             8.818e-02   1.655e-01    -1.055    -0.781     0.273     37.63
   HCO3-           3.213e-04   9.104e-05    -3.493    -4.041    -0.548     29.73
   CO3-2           4.228e-10   9.163e-12    -9.374   -11.038    -1.664      5.06
Cl            4.001e+00
   Cl-             4.001e+00   2.343e+00     0.602     0.370    -0.232     19.85
Na            4.001e+00
   Na+             4.001e+00   4.083e+00     0.602     0.611     0.009      1.58

------------------------------Saturation indices-------------------------------

  Phase               SI** log IAP   log K(353 K,  15 atm)

  CO2(g)            1.13     -0.78   -1.91  CO2	 Pressure  14.1 atm, phi 0.954
  H2O(g)           -0.40     -0.07    0.33  H2O	 Pressure   0.4 atm, phi 0.912
  Halite           -0.63      0.98    1.61  NaCl
  Nahcolite        -2.83    -13.56  -10.74  NaHCO3
  Natron           -9.66    -10.53   -0.86  Na2CO3:10H2O
  Trona           -12.15    -23.52  -11.37  Na3H(CO3)2:2H2O

**For a gas, SI = log10(fugacity). Fugacity = pressure * phi / 1 atm.
  For ideal gases, phi = 1.

Reaction step 4.

Using solution 1.	
Using gas phase 1.	
Using reaction 1.	

Reaction 1.	

	  2.000e-01 moles of the following reaction have been added:

	                 Relative
	Reactant            moles

	CO2                  1.00000

	                 Relative
	Element             moles
	C                    1.00000
	O                    2.00000

-----------------------------------Gas phase-----------------------------------

Total pressure: 19.04      atmospheres          (Peng-Robinson calculation)
    Gas volume:   1.00e+00 liters
  Molar volume:   1.42e+00 liters/mole
   P * Vm / RT:  0.93609  (Compressibility Factor Z) 

                                                        Moles in gas
                                            ----------------------------------
Component         log P           P    phi     Initial       Final       Delta

CO2(g)             1.27   1.859e+01  0.940   5.115e-01   6.854e-01   1.739e-01
H2O(g)            -0.35   4.492e-01  0.886   1.580e-02   1.656e-02   7.533e-04

-----------------------------Solution composition------------------------------

	Elements           Molality       Moles

	C                 1.146e-01   1.146e-01
	Cl                4.001e+00   4.000e+00
	Na                4.001e+00   4.000e+00

----------------------------Description of solution----------------------------

                                       pH  =   3.078      Charge balance
                                       pe  =   4.000      Adjusted to redox equilibrium
      Specific Conductance (µS/cm,  80°C)  = 448756
                          Density (g/cm³)  =   1.10787
                               Volume (L)  =   1.11792
                        Viscosity (mPa s)  =   0.56567
                        Activity of water  =   0.849
                 Ionic strength (mol/kgw)  =   4.002e+00
                       Mass of water (kg)  =   9.997e-01
                 Total alkalinity (eq/kg)  =   2.815e-12
                       Total CO2 (mol/kg)  =   1.146e-01
                         Temperature (°C)  =  80.00
                           Pressure (atm)  = 19.04
                  Electrical balance (eq)  =  -1.338e-10
 Percent error, 100*(Cat-|An|)/(Cat+|An|)  =  -0.00
                               Iterations  =  14
                         Gamma iterations  =   3
                      Osmotic coefficient  =   1.12250
                         Density of water  =   0.97261
                                  Total H  = 1.109793e+02
                                  Total O  = 5.571887e+01

----------------------------Distribution of species----------------------------

                                                    MacInnes  MacInnes
                                MacInnes       Log       Log       Log    mole V
   Species          Molality    Activity  Molality  Activity     Gamma   cm³/mol

   H+              3.658e-04   8.365e-04    -3.437    -3.078     0.359      0.00
   OH-             6.622e-10   2.641e-10    -9.179    -9.578    -0.399      2.79
   H2O             5.551e+01   8.486e-01     1.744    -0.071     0.000     18.52
C(4)          1.146e-01
   CO2             1.143e-01   2.138e-01    -0.942    -0.670     0.272     37.62
   HCO3-           3.658e-04   1.037e-04    -3.437    -3.984    -0.548     29.74
   CO3-2           4.239e-10   9.202e-12    -9.373   -11.036    -1.663      5.10
Cl            4.001e+00
   Cl-             4.001e+00   2.344e+00     0.602     0.370    -0.232     19.85
Na            4.001e+00
   Na+             4.001e+00   4.100e+00     0.602     0.613     0.011      1.59

------------------------------Saturation indices-------------------------------

  Phase               SI** log IAP   log K(353 K,  19 atm)

  CO2(g)            1.24     -0.67   -1.91  CO2	 Pressure  18.6 atm, phi 0.940
  H2O(g)           -0.40     -0.07    0.33  H2O	 Pressure   0.4 atm, phi 0.886
  Halite           -0.63      0.98    1.61  NaCl
  Nahcolite        -2.77    -13.50  -10.73  NaHCO3
  Natron           -9.65    -10.52   -0.88  Na2CO3:10H2O
  Trona           -12.08    -23.45  -11.37  Na3H(CO3)2:2H2O

**For a gas, SI = log10(fugacity). Fugacity = pressure * phi / 1 atm.
  For ideal gases, phi = 1.

Reaction step 5.

Using solution 1.	
Using gas phase 1.	
Using reaction 1.	

Reaction 1.	

	  2.000e-01 moles of the following reaction have been added:

	                 Relative
	Reactant            moles

	CO2                  1.00000

	                 Relative
	Element             moles
	C                    1.00000
	O                    2.00000

-----------------------------------Gas phase-----------------------------------

Total pressure: 23.45      atmospheres          (Peng-Robinson calculation)
    Gas volume:   1.00e+00 liters
  Molar volume:   1.14e+00 liters/mole
   P * Vm / RT:  0.92135  (Compressibility Factor Z) 

                                                        Moles in gas
                                            ----------------------------------
Component         log P           P    phi     Initial       Final       Delta

CO2(g)             1.36   2.298e+01  0.926   6.854e-01   8.608e-01   1.754e-01
H2O(g)            -0.33   4.631e-01  0.861   1.656e-02   1.734e-02   7.847e-04

-----------------------------Solution composition------------------------------

	Elements           Molality       Moles

	C                 1.392e-01   1.392e-01
	Cl                4.001e+00   4.000e+00
	Na                4.001e+00   4.000e+00

----------------------------Description of solution----------------------------

                                       pH  =   3.035      Charge balance
                                       pe  =   4.000      Adjusted to redox equilibrium
      Specific Conductance (µS/cm,  80°C)  = 447538
                          Density (g/cm³)  =   1.10809
                               Volume (L)  =   1.11867
                        Viscosity (mPa s)  =   0.56660
                        Activity of water  =   0.848
                 Ionic strength (mol/kgw)  =   4.002e+00
                       Mass of water (kg)  =   9.997e-01
                 Total alkalinity (eq/kg)  =   3.119e-12
                       Total CO2 (mol/kg)  =   1.392e-01
                         Temperature (°C)  =  80.00
                           Pressure (atm)  = 23.45
                  Electrical balance (eq)  =  -1.342e-10
 Percent error, 100*(Cat-|An|)/(Cat+|An|)  =  -0.00
                               Iterations  =  14
                         Gamma iterations  =   3
                      Osmotic coefficient  =   1.12410
                         Density of water  =   0.97281
                                  Total H  = 1.109777e+02
                                  Total O  = 5.576726e+01

----------------------------Distribution of species----------------------------

                                                    MacInnes  MacInnes
                                MacInnes       Log       Log       Log    mole V
   Species          Molality    Activity  Molality  Activity     Gamma   cm³/mol

   H+              4.032e-04   9.220e-04    -3.394    -3.035     0.359      0.00
   OH-             6.016e-10   2.400e-10    -9.221    -9.620    -0.399      2.77
   H2O             5.551e+01   8.480e-01     1.744    -0.072     0.000     18.52
C(4)          1.392e-01
   CO2             1.388e-01   2.591e-01    -0.857    -0.587     0.271     37.61
   HCO3-           4.032e-04   1.143e-04    -3.394    -3.942    -0.547     29.76
   CO3-2           4.251e-10   9.240e-12    -9.372   -11.034    -1.663      5.15
Cl            4.001e+00
   Cl-             4.001e+00   2.344e+00     0.602     0.370    -0.232     19.85
Na            4.001e+00
   Na+             4.001e+00   4.117e+00     0.602     0.615     0.012      1.61

------------------------------Saturation indices-------------------------------

  Phase               SI** log IAP   log K(353 K,  23 atm)

  CO2(g)            1.33     -0.59   -1.91  CO2	 Pressure  23.0 atm, phi 0.926
  H2O(g)           -0.40     -0.07    0.33  H2O	 Pressure   0.5 atm, phi 0.861
  Halite           -0.63      0.98    1.61  NaCl
  Nahcolite        -2.72    -13.45  -10.73  NaHCO3
  Natron           -9.63    -10.52   -0.89  Na2CO3:10H2O
  Trona           -12.04    -23.40  -11.37  Na3H(CO3)2:2H2O

**For a gas, SI = log10(fugacity). Fugacity = pressure * phi / 1 atm.
  For ideal gases, phi = 1.

Reaction step 6.

Using solution 1.	
Using gas phase 1.	
Using reaction 1.	

Reaction 1.	

	  1.000e+00 moles of the following reaction have been added:

	                 Relative
	Reactant            moles

	CO2                  1.00000

	                 Relative
	Element             moles
	C                    1.00000
	O                    2.00000

-----------------------------------Gas phase-----------------------------------

Total pressure: 43.93      atmospheres          (Peng-Robinson calculation)
    Gas volume:   1.00e+00 liters
  Molar volume:   5.62e-01 liters/mole
   P * Vm / RT:  0.85164  (Compressibility Factor Z) 

                                                        Moles in gas
                                            ----------------------------------
Component         log P           P    phi     Initial       Final       Delta

CO2(g)             1.64   4.339e+01  0.866   8.608e-01   1.758e+00   8.973e-01
H2O(g)            -0.27   5.370e-01  0.750   1.734e-02   2.176e-02   4.417e-03

-----------------------------Solution composition------------------------------

	Elements           Molality       Moles

	C                 2.419e-01   2.419e-01
	Cl                4.002e+00   4.000e+00
	Na                4.002e+00   4.000e+00

----------------------------Description of solution----------------------------

                                       pH  =   2.915      Charge balance
                                       pe  =   4.000      Adjusted to redox equilibrium
      Specific Conductance (µS/cm,  80°C)  = 442503
                          Density (g/cm³)  =   1.10909
                               Volume (L)  =   1.12166
                        Viscosity (mPa s)  =   0.57051
                        Activity of water  =   0.845
                 Ionic strength (mol/kgw)  =   4.002e+00
                       Mass of water (kg)  =   9.996e-01
                 Total alkalinity (eq/kg)  =   4.055e-12
                       Total CO2 (mol/kg)  =   2.419e-01
                         Temperature (°C)  =  80.00
                           Pressure (atm)  = 43.93
                  Electrical balance (eq)  =  -4.757e-09
 Percent error, 100*(Cat-|An|)/(Cat+|An|)  =  -0.00
                               Iterations  =  17
                         Gamma iterations  =   3
                      Osmotic coefficient  =   1.13059
                         Density of water  =   0.97374
                                  Total H  = 1.109689e+02
                                  Total O  = 5.596816e+01

----------------------------Distribution of species----------------------------

                                                    MacInnes  MacInnes
                                MacInnes       Log       Log       Log    mole V
   Species          Molality    Activity  Molality  Activity     Gamma   cm³/mol

   H+              5.322e-04   1.217e-03    -3.274    -2.915     0.359      0.00
   OH-             4.589e-10   1.834e-10    -9.338    -9.737    -0.398      2.68
   H2O             5.551e+01   8.454e-01     1.744    -0.073     0.000     18.50
C(4)          2.419e-01
   CO2             2.414e-01   4.450e-01    -0.617    -0.352     0.266     37.56
   HCO3-           5.322e-04   1.511e-04    -3.274    -3.821    -0.547     29.82
   CO3-2           4.302e-10   9.418e-12    -9.366   -11.026    -1.660      5.34
Cl            4.002e+00
   Cl-             4.002e+00   2.346e+00     0.602     0.370    -0.232     19.84
Na            4.002e+00
   Na+             4.002e+00   4.189e+00     0.602     0.622     0.020      1.66

------------------------------Saturation indices-------------------------------

  Phase               SI** log IAP   log K(353 K,  44 atm)

  CO2(g)            1.57     -0.35   -1.93  CO2	 Pressure  43.4 atm, phi 0.866
  H2O(g)           -0.39     -0.07    0.32  H2O	 Pressure   0.5 atm, phi 0.750
  Halite           -0.62      0.99    1.61  NaCl
  Nahcolite        -2.60    -13.32  -10.72  NaHCO3
  Natron           -9.56    -10.51   -0.95  Na2CO3:10H2O
  Trona           -11.90    -23.25  -11.35  Na3H(CO3)2:2H2O

**For a gas, SI = log10(fugacity). Fugacity = pressure * phi / 1 atm.
  For ideal gases, phi = 1.

Reaction step 7.

Using solution 1.	
Using gas phase 1.	
Using reaction 1.	

Reaction 1.	

	  1.000e+00 moles of the following reaction have been added:

	                 Relative
	Reactant            moles

	CO2                  1.00000

	                 Relative
	Element             moles
	C                    1.00000
	O                    2.00000

-----------------------------------Gas phase-----------------------------------

Total pressure: 61.95      atmospheres          (Peng-Robinson calculation)
    Gas volume:   1.00e+00 liters
  Molar volume:   3.69e-01 liters/mole
   P * Vm / RT:  0.78891  (Compressibility Factor Z) 

                                                        Moles in gas
                                            ----------------------------------
Component         log P           P    phi     Initial       Final       Delta

CO2(g)             1.79   6.134e+01  0.815   1.758e+00   2.683e+00   9.247e-01
H2O(g)            -0.21   6.184e-01  0.657   2.176e-02   2.705e-02   5.290e-03

-----------------------------Solution composition------------------------------

	Elements           Molality       Moles

	C                 3.173e-01   3.171e-01
	Cl                4.002e+00   4.000e+00
	Na                4.002e+00   4.000e+00

----------------------------Description of solution----------------------------

                                       pH  =   2.855      Charge balance
                                       pe  =   4.000      Adjusted to redox equilibrium
      Specific Conductance (µS/cm,  80°C)  = 438852
                          Density (g/cm³)  =   1.10993
                               Volume (L)  =   1.12371
                        Viscosity (mPa s)  =   0.57346
                        Activity of water  =   0.844
                 Ionic strength (mol/kgw)  =   4.003e+00
                       Mass of water (kg)  =   9.995e-01
                 Total alkalinity (eq/kg)  =   5.207e-12
                       Total CO2 (mol/kg)  =   3.173e-01
                         Temperature (°C)  =  80.00
                           Pressure (atm)  = 61.95
                  Electrical balance (eq)  =  -9.217e-09
 Percent error, 100*(Cat-|An|)/(Cat+|An|)  =  -0.00
                               Iterations  =  18
                         Gamma iterations  =   3
                      Osmotic coefficient  =   1.13522
                         Density of water  =   0.97455
                                  Total H  = 1.109583e+02
                                  Total O  = 5.611341e+01

----------------------------Distribution of species----------------------------

                                                    MacInnes  MacInnes
                                MacInnes       Log       Log       Log    mole V
   Species          Molality    Activity  Molality  Activity     Gamma   cm³/mol

   H+              6.107e-04   1.396e-03    -3.214    -2.855     0.359      0.00
   OH-             4.026e-10   1.610e-10    -9.395    -9.793    -0.398      2.59
   H2O             5.551e+01   8.435e-01     1.744    -0.074     0.000     18.49
C(4)          3.173e-01
   CO2             3.167e-01   5.786e-01    -0.499    -0.238     0.262     37.52
   HCO3-           6.107e-04   1.736e-04    -3.214    -3.760    -0.546     29.88
   CO3-2           4.346e-10   9.572e-12    -9.362   -11.019    -1.657      5.51
Cl            4.002e+00
   Cl-             4.002e+00   2.347e+00     0.602     0.371    -0.232     19.84
Na            4.002e+00
   Na+             4.002e+00   4.242e+00     0.602     0.628     0.025      1.71

------------------------------Saturation indices-------------------------------

  Phase               SI** log IAP   log K(353 K,  62 atm)

  CO2(g)            1.70     -0.24   -1.94  CO2	 Pressure  61.3 atm, phi 0.815
  H2O(g)           -0.39     -0.07    0.32  H2O	 Pressure   0.6 atm, phi 0.657
  Halite           -0.62      1.00    1.62  NaCl
  Nahcolite        -2.53    -13.25  -10.71  NaHCO3
  Natron           -9.50    -10.50   -1.00  Na2CO3:10H2O
  Trona           -11.82    -23.16  -11.34  Na3H(CO3)2:2H2O

**For a gas, SI = log10(fugacity). Fugacity = pressure * phi / 1 atm.
  For ideal gases, phi = 1.

Reaction step 8.

Using solution 1.	
Using gas phase 1.	
Using reaction 1.	

Reaction 1.	

	  1.000e+00 moles of the following reaction have been added:

	                 Relative
	Reactant            moles

	CO2                  1.00000

	                 Relative
	Element             moles
	C                    1.00000
	O                    2.00000

-----------------------------------Gas phase-----------------------------------

Total pressure: 77.79      atmospheres          (Peng-Robinson calculation)
    Gas volume:   1.00e+00 liters
  Molar volume:   2.73e-01 liters/mole
   P * Vm / RT:  0.73327  (Compressibility Factor Z) 

                                                        Moles in gas
                                            ----------------------------------
Component         log P           P    phi     Initial       Final       Delta

CO2(g)             1.89   7.708e+01  0.772   2.683e+00   3.628e+00   9.446e-01
H2O(g)            -0.15   7.071e-01  0.580   2.705e-02   3.327e-02   6.224e-03

-----------------------------Solution composition------------------------------

	Elements           Molality       Moles

	C                 3.727e-01   3.725e-01
	Cl                4.002e+00   4.000e+00
	Na                4.002e+00   4.000e+00

----------------------------Description of solution----------------------------

                                       pH  =   2.819      Charge balance
                                       pe  =   4.000      Adjusted to redox equilibrium
      Specific Conductance (µS/cm,  80°C)  = 436178
                          Density (g/cm³)  =   1.11066
                               Volume (L)  =   1.12507
                        Viscosity (mPa s)  =   0.57573
                        Activity of water  =   0.842
                 Ionic strength (mol/kgw)  =   4.003e+00
                       Mass of water (kg)  =   9.994e-01
                 Total alkalinity (eq/kg)  =   6.186e-12
                       Total CO2 (mol/kg)  =   3.727e-01
                         Temperature (°C)  =  80.00
                           Pressure (atm)  = 77.79
                  Electrical balance (eq)  =  -1.289e-08
 Percent error, 100*(Cat-|An|)/(Cat+|An|)  =  -0.00
                               Iterations  =  18
                         Gamma iterations  =   3
                      Osmotic coefficient  =   1.13856
                         Density of water  =   0.97526
                                  Total H  = 1.109459e+02
                                  Total O  = 5.621789e+01

----------------------------Distribution of species----------------------------

                                                    MacInnes  MacInnes
                                MacInnes       Log       Log       Log    mole V
   Species          Molality    Activity  Molality  Activity     Gamma   cm³/mol

   H+              6.635e-04   1.517e-03    -3.178    -2.819     0.359      0.00
   OH-             3.728e-10   1.493e-10    -9.429    -9.826    -0.397      2.52
   H2O             5.551e+01   8.421e-01     1.744    -0.075     0.000     18.47
C(4)          3.727e-01
   CO2             3.720e-01   6.754e-01    -0.429    -0.170     0.259     37.48
   HCO3-           6.635e-04   1.888e-04    -3.178    -3.724    -0.546     29.93
   CO3-2           4.384e-10   9.706e-12    -9.358   -11.013    -1.655      5.66
Cl            4.002e+00
   Cl-             4.002e+00   2.349e+00     0.602     0.371    -0.232     19.83
Na            4.002e+00
   Na+             4.002e+00   4.283e+00     0.602     0.632     0.029      1.76

------------------------------Saturation indices-------------------------------

  Phase               SI** log IAP   log K(353 K,  78 atm)

  CO2(g)            1.77     -0.17   -1.95  CO2	 Pressure  77.1 atm, phi 0.772
  H2O(g)           -0.39     -0.07    0.31  H2O	 Pressure   0.7 atm, phi 0.580
  Halite           -0.61      1.00    1.62  NaCl
  Nahcolite        -2.49    -13.20  -10.71  NaHCO3
  Natron           -9.45    -10.50   -1.05  Na2CO3:10H2O
  Trona           -11.78    -23.10  -11.32  Na3H(CO3)2:2H2O

**For a gas, SI = log10(fugacity). Fugacity = pressure * phi / 1 atm.
  For ideal gases, phi = 1.

Reaction step 9.

Using solution 1.	
Using gas phase 1.	
Using reaction 1.	

Reaction 1.	

	  1.000e+00 moles of the following reaction have been added:

	                 Relative
	Reactant            moles

	CO2                  1.00000

	                 Relative
	Element             moles
	C                    1.00000
	O                    2.00000

-----------------------------------Gas phase-----------------------------------

Total pressure: 91.79      atmospheres          (Peng-Robinson calculation)
    Gas volume:   1.00e+00 liters
  Molar volume:   2.16e-01 liters/mole
   P * Vm / RT:  0.68459  (Compressibility Factor Z) 

                                                        Moles in gas
                                            ----------------------------------
Component         log P           P    phi     Initial       Final       Delta

CO2(g)             1.96   9.099e+01  0.737   3.628e+00   4.586e+00   9.588e-01
H2O(g)            -0.10   8.031e-01  0.514   3.327e-02   4.048e-02   7.207e-03

-----------------------------Solution composition------------------------------

	Elements           Molality       Moles

	C                 4.140e-01   4.137e-01
	Cl                4.003e+00   4.000e+00
	Na                4.003e+00   4.000e+00

----------------------------Description of solution----------------------------

                                       pH  =   2.795      Charge balance
                                       pe  =   4.000      Adjusted to redox equilibrium
      Specific Conductance (µS/cm,  80°C)  = 434184
                          Density (g/cm³)  =   1.11129
                               Volume (L)  =   1.12595
                        Viscosity (mPa s)  =   0.57752
                        Activity of water  =   0.841
                 Ionic strength (mol/kgw)  =   4.004e+00
                       Mass of water (kg)  =   9.993e-01
                 Total alkalinity (eq/kg)  =   6.897e-12
                       Total CO2 (mol/kg)  =   4.140e-01
                         Temperature (°C)  =  80.00
                           Pressure (atm)  = 91.79
                  Electrical balance (eq)  =  -1.572e-08
 Percent error, 100*(Cat-|An|)/(Cat+|An|)  =  -0.00
                               Iterations  =  17
                         Gamma iterations  =   3
                      Osmotic coefficient  =   1.14104
                         Density of water  =   0.97588
                                  Total H  = 1.109315e+02
                                  Total O  = 5.629315e+01

----------------------------Distribution of species----------------------------

                                                    MacInnes  MacInnes
                                MacInnes       Log       Log       Log    mole V
   Species          Molality    Activity  Molality  Activity     Gamma   cm³/mol

   H+              7.012e-04   1.603e-03    -3.154    -2.795     0.359      0.00
   OH-             3.547e-10   1.422e-10    -9.450    -9.847    -0.397      2.46
   H2O             5.551e+01   8.411e-01     1.744    -0.075     0.000     18.46
C(4)          4.140e-01
   CO2             4.133e-01   7.467e-01    -0.384    -0.127     0.257     37.45
   HCO3-           7.012e-04   1.997e-04    -3.154    -3.700    -0.545     29.97
   CO3-2           4.417e-10   9.824e-12    -9.355   -11.008    -1.653      5.78
Cl            4.003e+00
   Cl-             4.003e+00   2.350e+00     0.602     0.371    -0.231     19.83
Na            4.003e+00
   Na+             4.003e+00   4.314e+00     0.602     0.635     0.032      1.80

------------------------------Saturation indices-------------------------------

  Phase               SI** log IAP   log K(353 K,  92 atm)

  CO2(g)            1.83     -0.13   -1.95  CO2	 Pressure  91.0 atm, phi 0.737
  H2O(g)           -0.38     -0.08    0.31  H2O	 Pressure   0.8 atm, phi 0.514
  Halite           -0.61      1.01    1.62  NaCl
  Nahcolite        -2.47    -13.17  -10.70  NaHCO3
  Natron           -9.40    -10.49   -1.09  Na2CO3:10H2O
  Trona           -11.74    -23.06  -11.31  Na3H(CO3)2:2H2O

**For a gas, SI = log10(fugacity). Fugacity = pressure * phi / 1 atm.
  For ideal gases, phi = 1.

Reaction step 10.

Using solution 1.	
Using gas phase 1.	
Using reaction 1.	

Reaction 1.	

	  1.000e+00 moles of the following reaction have been added:

	                 Relative
	Reactant            moles

	CO2                  1.00000

	                 Relative
	Element             moles
	C                    1.00000
	O                    2.00000

-----------------------------------Gas phase-----------------------------------

Total pressure: 104.36      atmospheres          (Peng-Robinson calculation)
    Gas volume:   1.00e+00 liters
  Molar volume:   1.78e-01 liters/mole
   P * Vm / RT:  0.64265  (Compressibility Factor Z) 

                                                        Moles in gas
                                            ----------------------------------
Component         log P           P    phi     Initial       Final       Delta

CO2(g)             2.01   1.035e+02  0.706   4.586e+00   5.555e+00   9.686e-01
H2O(g)            -0.04   9.071e-01  0.459   4.048e-02   4.871e-02   8.227e-03

-----------------------------Solution composition------------------------------

	Elements           Molality       Moles

	C                 4.455e-01   4.451e-01
	Cl                4.004e+00   4.000e+00
	Na                4.004e+00   4.000e+00

----------------------------Description of solution----------------------------

                                       pH  =   2.778      Charge balance
                                       pe  =   4.000      Adjusted to redox equilibrium
      Specific Conductance (µS/cm,  80°C)  = 432658
                          Density (g/cm³)  =   1.11184
                               Volume (L)  =   1.12650
                        Viscosity (mPa s)  =   0.57897
                        Activity of water  =   0.840
                 Ionic strength (mol/kgw)  =   4.004e+00
                       Mass of water (kg)  =   9.991e-01
                 Total alkalinity (eq/kg)  =   7.396e-12
                       Total CO2 (mol/kg)  =   4.455e-01
                         Temperature (°C)  =  80.00
                           Pressure (atm)  = 104.36
                  Electrical balance (eq)  =  -1.788e-08
 Percent error, 100*(Cat-|An|)/(Cat+|An|)  =  -0.00
                               Iterations  =  17
                         Gamma iterations  =   3
                      Osmotic coefficient  =   1.14294
                         Density of water  =   0.97644
                                  Total H  = 1.109150e+02
                                  Total O  = 5.634773e+01

----------------------------Distribution of species----------------------------

                                                    MacInnes  MacInnes
                                MacInnes       Log       Log       Log    mole V
   Species          Molality    Activity  Molality  Activity     Gamma   cm³/mol

   H+              7.294e-04   1.668e-03    -3.137    -2.778     0.359      0.00
   OH-             3.428e-10   1.375e-10    -9.465    -9.862    -0.397      2.40
   H2O             5.551e+01   8.402e-01     1.744    -0.076     0.000     18.45
C(4)          4.455e-01
   CO2             4.448e-01   8.007e-01    -0.352    -0.097     0.255     37.42
   HCO3-           7.294e-04   2.079e-04    -3.137    -3.682    -0.545     30.01
   CO3-2           4.447e-10   9.928e-12    -9.352   -11.003    -1.651      5.90
Cl            4.004e+00
   Cl-             4.004e+00   2.351e+00     0.602     0.371    -0.231     19.83
Na            4.004e+00
   Na+             4.004e+00   4.338e+00     0.602     0.637     0.035      1.83

------------------------------Saturation indices-------------------------------

  Phase               SI** log IAP   log K(353 K, 104 atm)

  CO2(g)            1.86     -0.10   -1.96  CO2	 Pressure 103.5 atm, phi 0.706
  H2O(g)           -0.38     -0.08    0.31  H2O	 Pressure   0.9 atm, phi 0.459
  Halite           -0.61      1.01    1.62  NaCl
  Nahcolite        -2.45    -13.14  -10.70  NaHCO3
  Natron           -9.36    -10.48   -1.13  Na2CO3:10H2O
  Trona           -11.72    -23.02  -11.30  Na3H(CO3)2:2H2O

**For a gas, SI = log10(fugacity). Fugacity = pressure * phi / 1 atm.
  For ideal gases, phi = 1.

------------------
End of simulation.
------------------

------------------------------------
Reading input data for simulation 2.
------------------------------------

	SOLUTION 1
	 pH 7 charge
	 Na 4e3
	 Cl 4e3
	 temp 120
	USE reaction 1
	 USE gas_phase 1
	END
-------------------------------------------
Beginning of initial solution calculations.
-------------------------------------------

Initial solution 1.	

-----------------------------Solution composition------------------------------

	Elements           Molality       Moles

	Cl                4.000e+00   4.000e+00
	Na                4.000e+00   4.000e+00

----------------------------Description of solution----------------------------

                                       pH  =   5.680      Charge balance
                                       pe  =   4.000    
      Specific Conductance (µS/cm, 120°C)  = 618904
                          Density (g/cm³)  =   1.08014
                               Volume (L)  =   1.14223
                        Viscosity (mPa s)  =   0.37271
                        Activity of water  =   0.856
                 Ionic strength (mol/kgw)  =   4.000e+00
                       Mass of water (kg)  =   1.000e+00
                 Total alkalinity (eq/kg)  =   8.875e-15
                         Temperature (°C)  = 120.00
                  Electrical balance (eq)  =   1.299e-12
 Percent error, 100*(Cat-|An|)/(Cat+|An|)  =   0.00
                               Iterations  =   9
                         Gamma iterations  =   4
                      Osmotic coefficient  =   1.08125
                         Density of water  =   0.94311
                                  Total H  = 1.110124e+02
                                  Total O  = 5.550622e+01

----------------------------Distribution of species----------------------------

                                                    MacInnes  MacInnes
                                MacInnes       Log       Log       Log    mole V
   Species          Molality    Activity  Molality  Activity     Gamma   cm³/mol

   OH-             1.154e-06   4.569e-07    -5.938    -6.340    -0.402      1.65
   H+              1.154e-06   2.089e-06    -5.938    -5.680     0.258      0.00
   H2O             5.551e+01   8.557e-01     1.744    -0.068     0.000     19.10
Cl            4.000e+00
   Cl-             4.000e+00   2.161e+00     0.602     0.335    -0.267     18.63
Na            4.000e+00
   Na+             4.000e+00   3.472e+00     0.602     0.541    -0.061      1.85

------------------------------Saturation indices-------------------------------

  Phase               SI** log IAP   log K(393 K,   1 atm)

  H2O(g)            0.22     -0.07   -0.28  H2O
  Halite           -0.66      0.88    1.54  NaCl

**For a gas, SI = log10(fugacity). Fugacity = pressure * phi / 1 atm.
  For ideal gases, phi = 1.

-----------------------------------------
Beginning of batch-reaction calculations.
-----------------------------------------

Reaction step 1.

Using solution 1.	
Using gas phase 1.	
Using reaction 1.	

Reaction 1.	

	  2.000e-01 moles of the following reaction have been added:

	                 Relative
	Reactant            moles

	CO2                  1.00000

	                 Relative
	Element             moles
	C                    1.00000
	O                    2.00000

-----------------------------------Gas phase-----------------------------------

Total pressure:  7.21      atmospheres          (Peng-Robinson calculation)
    Gas volume:   1.00e+00 liters
  Molar volume:   4.38e+00 liters/mole
   P * Vm / RT:  0.97869  (Compressibility Factor Z) 

                                                        Moles in gas
                                            ----------------------------------
Component         log P           P    phi     Initial       Final       Delta

CO2(g)             0.74   5.488e+00  0.985   0.000e+00   1.738e-01   1.738e-01
H2O(g)             0.24   1.724e+00  0.959   0.000e+00   5.459e-02   5.459e-02

-----------------------------Solution composition------------------------------

	Elements           Molality       Moles

	C                 2.623e-02   2.620e-02
	Cl                4.004e+00   4.000e+00
	Na                4.004e+00   4.000e+00

----------------------------Description of solution----------------------------

                                       pH  =   3.515      Charge balance
                                       pe  =   4.000      Adjusted to redox equilibrium
      Specific Conductance (µS/cm, 120°C)  = 617369
                          Density (g/cm³)  =   1.08022
                               Volume (L)  =   1.14231
                        Viscosity (mPa s)  =   0.37332
                        Activity of water  =   0.855
                 Ionic strength (mol/kgw)  =   4.004e+00
                       Mass of water (kg)  =   9.990e-01
                 Total alkalinity (eq/kg)  =   1.177e-14
                       Total CO2 (mol/kg)  =   2.623e-02
                         Temperature (°C)  = 120.00
                           Pressure (atm)  =  7.21
                  Electrical balance (eq)  =   1.295e-12
 Percent error, 100*(Cat-|An|)/(Cat+|An|)  =   0.00
                               Iterations  =  33
                         Gamma iterations  =   4
                      Osmotic coefficient  =   1.08347
                         Density of water  =   0.94311
                                  Total H  = 1.109032e+02
                                  Total O  = 5.550403e+01

----------------------------Distribution of species----------------------------

                                                    MacInnes  MacInnes
                                MacInnes       Log       Log       Log    mole V
   Species          Molality    Activity  Molality  Activity     Gamma   cm³/mol

   H+              1.683e-04   3.052e-04    -3.774    -3.515     0.259      0.00
   OH-             7.914e-09   3.135e-09    -8.102    -8.504    -0.402      1.61
   H2O             5.551e+01   8.549e-01     1.744    -0.068     0.000     19.10
C(4)          2.623e-02
   CO2             2.606e-02   4.926e-02    -1.584    -1.307     0.277     40.96
   HCO3-           1.683e-04   4.046e-05    -3.774    -4.393    -0.619     28.64
   CO3-2           3.331e-10   7.767e-12    -9.477   -11.110    -1.632      0.73
Cl            4.004e+00
   Cl-             4.004e+00   2.164e+00     0.602     0.335    -0.267     18.63
Na            4.004e+00
   Na+             4.004e+00   3.493e+00     0.602     0.543    -0.059      1.86

------------------------------Saturation indices-------------------------------

  Phase               SI** log IAP   log K(393 K,   7 atm)

  CO2(g)            0.73     -1.31   -2.04  CO2	 Pressure   5.5 atm, phi 0.985
  H2O(g)            0.22     -0.07   -0.29  H2O	 Pressure   1.7 atm, phi 0.959
  Halite           -0.66      0.88    1.54  NaCl
  Nahcolite        -3.34    -14.08  -10.74  NaHCO3
  Natron           -9.86    -10.70   -0.84  Na2CO3:10H2O
  Trona           -12.86    -24.24  -11.38  Na3H(CO3)2:2H2O

**For a gas, SI = log10(fugacity). Fugacity = pressure * phi / 1 atm.
  For ideal gases, phi = 1.

Reaction step 2.

Using solution 1.	
Using gas phase 1.	
Using reaction 1.	

Reaction 1.	

	  2.000e-01 moles of the following reaction have been added:

	                 Relative
	Reactant            moles

	CO2                  1.00000

	                 Relative
	Element             moles
	C                    1.00000
	O                    2.00000

-----------------------------------Gas phase-----------------------------------

Total pressure: 12.66      atmospheres          (Peng-Robinson calculation)
    Gas volume:   1.00e+00 liters
  Molar volume:   2.46e+00 liters/mole
   P * Vm / RT:  0.96689  (Compressibility Factor Z) 

                                                        Moles in gas
                                            ----------------------------------
Component         log P           P    phi     Initial       Final       Delta

CO2(g)             1.04   1.088e+01  0.973   1.738e-01   3.489e-01   1.751e-01
H2O(g)             0.25   1.773e+00  0.935   5.459e-02   5.683e-02   2.231e-03

-----------------------------Solution composition------------------------------

	Elements           Molality       Moles

	C                 5.111e-02   5.106e-02
	Cl                4.004e+00   4.000e+00
	Na                4.004e+00   4.000e+00

----------------------------Description of solution----------------------------

                                       pH  =   3.370      Charge balance
                                       pe  =   4.000      Adjusted to redox equilibrium
      Specific Conductance (µS/cm, 120°C)  = 615517
                          Density (g/cm³)  =   1.08071
                               Volume (L)  =   1.14276
                        Viscosity (mPa s)  =   0.37422
                        Activity of water  =   0.854
                 Ionic strength (mol/kgw)  =   4.004e+00
                       Mass of water (kg)  =   9.990e-01
                 Total alkalinity (eq/kg)  =   3.483e-12
                       Total CO2 (mol/kg)  =   5.111e-02
                         Temperature (°C)  = 120.00
                           Pressure (atm)  = 12.66
                  Electrical balance (eq)  =  -1.441e-10
 Percent error, 100*(Cat-|An|)/(Cat+|An|)  =  -0.00
                               Iterations  =  25
                         Gamma iterations  =   3
                      Osmotic coefficient  =   1.08527
                         Density of water  =   0.94366
                                  Total H  = 1.108988e+02
                                  Total O  = 5.555150e+01

----------------------------Distribution of species----------------------------

                                                    MacInnes  MacInnes
                                MacInnes       Log       Log       Log    mole V
   Species          Molality    Activity  Molality  Activity     Gamma   cm³/mol

   H+              2.352e-04   4.265e-04    -3.629    -3.370     0.258      0.00
   OH-             5.674e-09   2.248e-09    -8.246    -8.648    -0.402      1.58
   H2O             5.551e+01   8.542e-01     1.744    -0.068     0.000     19.09
C(4)          5.111e-02
   CO2             5.087e-02   9.583e-02    -1.294    -1.019     0.275     40.94
   HCO3-           2.352e-04   5.656e-05    -3.629    -4.247    -0.619     28.66
   CO3-2           3.348e-10   7.807e-12    -9.475   -11.108    -1.632      0.81
Cl            4.004e+00
   Cl-             4.004e+00   2.164e+00     0.603     0.335    -0.267     18.64
Na            4.004e+00
   Na+             4.004e+00   3.508e+00     0.603     0.545    -0.057      1.88

------------------------------Saturation indices-------------------------------

  Phase               SI** log IAP   log K(393 K,  13 atm)

  CO2(g)            1.02     -1.02   -2.04  CO2	 Pressure  10.9 atm, phi 0.973
  H2O(g)            0.22     -0.07   -0.29  H2O	 Pressure   1.8 atm, phi 0.935
  Halite           -0.66      0.88    1.54  NaCl
  Nahcolite        -3.20    -13.93  -10.74  NaHCO3
  Natron           -9.85    -10.70   -0.86  Na2CO3:10H2O
  Trona           -12.71    -24.09  -11.37  Na3H(CO3)2:2H2O

**For a gas, SI = log10(fugacity). Fugacity = pressure * phi / 1 atm.
  For ideal gases, phi = 1.

Reaction step 3.

Using solution 1.	
Using gas phase 1.	
Using reaction 1.	

Reaction 1.	

	  2.000e-01 moles of the following reaction have been added:

	                 Relative
	Reactant            moles

	CO2                  1.00000

	                 Relative
	Element             moles
	C                    1.00000
	O                    2.00000

-----------------------------------Gas phase-----------------------------------

Total pressure: 18.01      atmospheres          (Peng-Robinson calculation)
    Gas volume:   1.00e+00 liters
  Molar volume:   1.71e+00 liters/mole
   P * Vm / RT:  0.95505  (Compressibility Factor Z) 

                                                        Moles in gas
                                            ----------------------------------
Component         log P           P    phi     Initial       Final       Delta

CO2(g)             1.21   1.619e+01  0.961   3.489e-01   5.253e-01   1.764e-01
H2O(g)             0.26   1.822e+00  0.912   5.683e-02   5.913e-02   2.303e-03

-----------------------------Solution composition------------------------------

	Elements           Molality       Moles

	C                 7.477e-02   7.469e-02
	Cl                4.004e+00   4.000e+00
	Na                4.004e+00   4.000e+00

----------------------------Description of solution----------------------------

                                       pH  =   3.287      Charge balance
                                       pe  =   4.000      Adjusted to redox equilibrium
      Specific Conductance (µS/cm, 120°C)  = 613820
                          Density (g/cm³)  =   1.08094
                               Volume (L)  =   1.14344
                        Viscosity (mPa s)  =   0.37486
                        Activity of water  =   0.854
                 Ionic strength (mol/kgw)  =   4.005e+00
                       Mass of water (kg)  =   9.989e-01
                 Total alkalinity (eq/kg)  =   3.721e-12
                       Total CO2 (mol/kg)  =   7.477e-02
                         Temperature (°C)  = 120.00
                           Pressure (atm)  = 18.01
                  Electrical balance (eq)  =  -1.444e-10
 Percent error, 100*(Cat-|An|)/(Cat+|An|)  =  -0.00
                               Iterations  =  14
                         Gamma iterations  =   3
                      Osmotic coefficient  =   1.08700
                         Density of water  =   0.94394
                                  Total H  = 1.108942e+02
                                  Total O  = 5.559647e+01

----------------------------Distribution of species----------------------------

                                                    MacInnes  MacInnes
                                MacInnes       Log       Log       Log    mole V
   Species          Molality    Activity  Molality  Activity     Gamma   cm³/mol

   H+              2.847e-04   5.163e-04    -3.546    -3.287     0.259      0.00
   OH-             4.696e-09   1.861e-09    -8.328    -8.730    -0.402      1.55
   H2O             5.551e+01   8.536e-01     1.744    -0.069     0.000     19.09
C(4)          7.477e-02
   CO2             7.449e-02   1.398e-01    -1.128    -0.854     0.274     40.91
   HCO3-           2.847e-04   6.849e-05    -3.546    -4.164    -0.619     28.69
   CO3-2           3.360e-10   7.846e-12    -9.474   -11.105    -1.632      0.87
Cl            4.004e+00
   Cl-             4.004e+00   2.165e+00     0.603     0.335    -0.267     18.64
Na            4.004e+00
   Na+             4.004e+00   3.522e+00     0.603     0.547    -0.056      1.89

------------------------------Saturation indices-------------------------------

  Phase               SI** log IAP   log K(393 K,  18 atm)

  CO2(g)            1.19     -0.85   -2.05  CO2	 Pressure  16.2 atm, phi 0.961
  H2O(g)            0.22     -0.07   -0.29  H2O	 Pressure   1.8 atm, phi 0.912
  Halite           -0.66      0.88    1.54  NaCl
  Nahcolite        -3.11    -13.85  -10.73  NaHCO3
  Natron           -9.83    -10.70   -0.87  Na2CO3:10H2O
  Trona           -12.62    -23.99  -11.37  Na3H(CO3)2:2H2O

**For a gas, SI = log10(fugacity). Fugacity = pressure * phi / 1 atm.
  For ideal gases, phi = 1.

Reaction step 4.

Using solution 1.	
Using gas phase 1.	
Using reaction 1.	

Reaction 1.	

	  2.000e-01 moles of the following reaction have been added:

	                 Relative
	Reactant            moles

	CO2                  1.00000

	                 Relative
	Element             moles
	C                    1.00000
	O                    2.00000

-----------------------------------Gas phase-----------------------------------

Total pressure: 23.26      atmospheres          (Peng-Robinson calculation)
    Gas volume:   1.00e+00 liters
  Molar volume:   1.31e+00 liters/mole
   P * Vm / RT:  0.94338  (Compressibility Factor Z) 

                                                        Moles in gas
                                            ----------------------------------
Component         log P           P    phi     Initial       Final       Delta

CO2(g)             1.33   2.139e+01  0.950   5.253e-01   7.028e-01   1.775e-01
H2O(g)             0.27   1.872e+00  0.890   5.913e-02   6.151e-02   2.376e-03

-----------------------------Solution composition------------------------------

	Elements           Molality       Moles

	C                 9.728e-02   9.718e-02
	Cl                4.004e+00   4.000e+00
	Na                4.004e+00   4.000e+00

----------------------------Description of solution----------------------------

                                       pH  =   3.230      Charge balance
                                       pe  =   4.000      Adjusted to redox equilibrium
      Specific Conductance (µS/cm, 120°C)  = 612208
                          Density (g/cm³)  =   1.08117
                               Volume (L)  =   1.14407
                        Viscosity (mPa s)  =   0.37547
                        Activity of water  =   0.853
                 Ionic strength (mol/kgw)  =   4.005e+00
                       Mass of water (kg)  =   9.989e-01
                 Total alkalinity (eq/kg)  =   4.054e-12
                       Total CO2 (mol/kg)  =   9.728e-02
                         Temperature (°C)  = 120.00
                           Pressure (atm)  = 23.26
                  Electrical balance (eq)  =  -1.447e-10
 Percent error, 100*(Cat-|An|)/(Cat+|An|)  =  -0.00
                               Iterations  =  14
                         Gamma iterations  =   3
                      Osmotic coefficient  =   1.08863
                         Density of water  =   0.94421
                                  Total H  = 1.108894e+02
                                  Total O  = 5.563907e+01

----------------------------Distribution of species----------------------------

                                                    MacInnes  MacInnes
                                MacInnes       Log       Log       Log    mole V
   Species          Molality    Activity  Molality  Activity     Gamma   cm³/mol

   H+              3.249e-04   5.893e-04    -3.488    -3.230     0.259      0.00
   OH-             4.121e-09   1.634e-09    -8.385    -8.787    -0.402      1.52
   H2O             5.551e+01   8.530e-01     1.744    -0.069     0.000     19.08
C(4)          9.728e-02
   CO2             9.696e-02   1.814e-01    -1.013    -0.741     0.272     40.89
   HCO3-           3.249e-04   7.820e-05    -3.488    -4.107    -0.619     28.71
   CO3-2           3.372e-10   7.884e-12    -9.472   -11.103    -1.631      0.93
Cl            4.004e+00
   Cl-             4.004e+00   2.165e+00     0.603     0.336    -0.267     18.64
Na            4.004e+00
   Na+             4.004e+00   3.536e+00     0.603     0.549    -0.054      1.90

------------------------------Saturation indices-------------------------------

  Phase               SI** log IAP   log K(393 K,  23 atm)

  CO2(g)            1.31     -0.74   -2.05  CO2	 Pressure  21.4 atm, phi 0.950
  H2O(g)            0.22     -0.07   -0.29  H2O	 Pressure   1.9 atm, phi 0.890
  Halite           -0.66      0.88    1.54  NaCl
  Nahcolite        -3.05    -13.78  -10.73  NaHCO3
  Natron           -9.81    -10.70   -0.88  Na2CO3:10H2O
  Trona           -12.56    -23.93  -11.37  Na3H(CO3)2:2H2O

**For a gas, SI = log10(fugacity). Fugacity = pressure * phi / 1 atm.
  For ideal gases, phi = 1.

Reaction step 5.

Using solution 1.	
Using gas phase 1.	
Using reaction 1.	

Reaction 1.	

	  2.000e-01 moles of the following reaction have been added:

	                 Relative
	Reactant            moles

	CO2                  1.00000

	                 Relative
	Element             moles
	C                    1.00000
	O                    2.00000

-----------------------------------Gas phase-----------------------------------

Total pressure: 28.42      atmospheres          (Peng-Robinson calculation)
    Gas volume:   1.00e+00 liters
  Molar volume:   1.06e+00 liters/mole
   P * Vm / RT:  0.93194  (Compressibility Factor Z) 

                                                        Moles in gas
                                            ----------------------------------
Component         log P           P    phi     Initial       Final       Delta

CO2(g)             1.42   2.650e+01  0.939   7.028e-01   8.814e-01   1.786e-01
H2O(g)             0.28   1.923e+00  0.868   6.151e-02   6.395e-02   2.450e-03

-----------------------------Solution composition------------------------------

	Elements           Molality       Moles

	C                 1.187e-01   1.186e-01
	Cl                4.005e+00   4.000e+00
	Na                4.005e+00   4.000e+00

----------------------------Description of solution----------------------------

                                       pH  =   3.186      Charge balance
                                       pe  =   4.000      Adjusted to redox equilibrium
      Specific Conductance (µS/cm, 120°C)  = 610678
                          Density (g/cm³)  =   1.08139
                               Volume (L)  =   1.14467
                        Viscosity (mPa s)  =   0.37606
                        Activity of water  =   0.852
                 Ionic strength (mol/kgw)  =   4.005e+00
                       Mass of water (kg)  =   9.988e-01
                 Total alkalinity (eq/kg)  =   4.508e-12
                       Total CO2 (mol/kg)  =   1.187e-01
                         Temperature (°C)  = 120.00
                           Pressure (atm)  = 28.42
                  Electrical balance (eq)  =  -1.452e-10
 Percent error, 100*(Cat-|An|)/(Cat+|An|)  =  -0.00
                               Iterations  =  14
                         Gamma iterations  =   3
                      Osmotic coefficient  =   1.09017
                         Density of water  =   0.94447
                                  Total H  = 1.108845e+02
                                  Total O  = 5.567940e+01

----------------------------Distribution of species----------------------------

                                                    MacInnes  MacInnes
                                MacInnes       Log       Log       Log    mole V
   Species          Molality    Activity  Molality  Activity     Gamma   cm³/mol

   H+              3.591e-04   6.513e-04    -3.445    -3.186     0.259      0.00
   OH-             3.735e-09   1.482e-09    -8.428    -8.829    -0.402      1.48
   H2O             5.551e+01   8.525e-01     1.744    -0.069     0.000     19.08
C(4)          1.187e-01
   CO2             1.183e-01   2.207e-01    -0.927    -0.656     0.271     40.87
   HCO3-           3.591e-04   8.646e-05    -3.445    -4.063    -0.618     28.73
   CO3-2           3.383e-10   7.921e-12    -9.471   -11.101    -1.631      1.00
Cl            4.005e+00
   Cl-             4.005e+00   2.166e+00     0.603     0.336    -0.267     18.65
Na            4.005e+00
   Na+             4.005e+00   3.549e+00     0.603     0.550    -0.052      1.92

------------------------------Saturation indices-------------------------------

  Phase               SI** log IAP   log K(393 K,  28 atm)

  CO2(g)            1.40     -0.66   -2.05  CO2	 Pressure  26.5 atm, phi 0.939
  H2O(g)            0.22     -0.07   -0.29  H2O	 Pressure   1.9 atm, phi 0.868
  Halite           -0.66      0.89    1.54  NaCl
  Nahcolite        -3.01    -13.74  -10.73  NaHCO3
  Natron           -9.80    -10.69   -0.90  Na2CO3:10H2O
  Trona           -12.52    -23.88  -11.36  Na3H(CO3)2:2H2O

**For a gas, SI = log10(fugacity). Fugacity = pressure * phi / 1 atm.
  For ideal gases, phi = 1.

Reaction step 6.

Using solution 1.	
Using gas phase 1.	
Using reaction 1.	

Reaction 1.	

	  1.000e+00 moles of the following reaction have been added:

	                 Relative
	Reactant            moles

	CO2                  1.00000

	                 Relative
	Element             moles
	C                    1.00000
	O                    2.00000

-----------------------------------Gas phase-----------------------------------

Total pressure: 52.90      atmospheres          (Peng-Robinson calculation)
    Gas volume:   1.00e+00 liters
  Molar volume:   5.36e-01 liters/mole
   P * Vm / RT:  0.87853  (Compressibility Factor Z) 

                                                        Moles in gas
                                            ----------------------------------
Component         log P           P    phi     Initial       Final       Delta

CO2(g)             1.71   5.070e+01  0.890   8.814e-01   1.789e+00   9.075e-01
H2O(g)             0.34   2.192e+00  0.771   6.395e-02   7.733e-02   1.337e-02

-----------------------------Solution composition------------------------------

	Elements           Molality       Moles

	C                 2.113e-01   2.110e-01
	Cl                4.006e+00   4.000e+00
	Na                4.006e+00   4.000e+00

----------------------------Description of solution----------------------------

                                       pH  =   3.060      Charge balance
                                       pe  =   4.000      Adjusted to redox equilibrium
      Specific Conductance (µS/cm, 120°C)  = 604081
                          Density (g/cm³)  =   1.08246
                               Volume (L)  =   1.14708
                        Viscosity (mPa s)  =   0.37868
                        Activity of water  =   0.850
                 Ionic strength (mol/kgw)  =   4.006e+00
                       Mass of water (kg)  =   9.986e-01
                 Total alkalinity (eq/kg)  =   5.931e-12
                       Total CO2 (mol/kg)  =   2.113e-01
                         Temperature (°C)  = 120.00
                           Pressure (atm)  = 52.90
                  Electrical balance (eq)  =  -5.188e-09
 Percent error, 100*(Cat-|An|)/(Cat+|An|)  =  -0.00
                               Iterations  =  17
                         Gamma iterations  =   3
                      Osmotic coefficient  =   1.09671
                         Density of water  =   0.94572
                                  Total H  = 1.108578e+02
                                  Total O  = 5.585097e+01

----------------------------Distribution of species----------------------------

                                                    MacInnes  MacInnes
                                MacInnes       Log       Log       Log    mole V
   Species          Molality    Activity  Molality  Activity     Gamma   cm³/mol

   H+              4.804e-04   8.718e-04    -3.318    -3.060     0.259      0.00
   OH-             2.815e-09   1.119e-09    -8.550    -8.951    -0.401      1.33
   H2O             5.551e+01   8.500e-01     1.744    -0.071     0.000     19.05
C(4)          2.113e-01
   CO2             2.109e-01   3.880e-01    -0.676    -0.411     0.265     40.76
   HCO3-           4.804e-04   1.159e-04    -3.318    -3.936    -0.618     28.83
   CO3-2           3.433e-10   8.098e-12    -9.464   -11.092    -1.627      1.28
Cl            4.006e+00
   Cl-             4.006e+00   2.169e+00     0.603     0.336    -0.266     18.66
Na            4.006e+00
   Na+             4.006e+00   3.608e+00     0.603     0.557    -0.045      1.98

------------------------------Saturation indices-------------------------------

  Phase               SI** log IAP   log K(393 K,  53 atm)

  CO2(g)            1.65     -0.41   -2.07  CO2	 Pressure  50.7 atm, phi 0.890
  H2O(g)            0.23     -0.07   -0.30  H2O	 Pressure   2.2 atm, phi 0.771
  Halite           -0.65      0.89    1.54  NaCl
  Nahcolite        -2.88    -13.59  -10.72  NaHCO3
  Natron           -9.72    -10.68   -0.96  Na2CO3:10H2O
  Trona           -12.37    -23.71  -11.34  Na3H(CO3)2:2H2O

**For a gas, SI = log10(fugacity). Fugacity = pressure * phi / 1 atm.
  For ideal gases, phi = 1.

Reaction step 7.

Using solution 1.	
Using gas phase 1.	
Using reaction 1.	

Reaction 1.	

	  1.000e+00 moles of the following reaction have been added:

	                 Relative
	Reactant            moles

	CO2                  1.00000

	                 Relative
	Element             moles
	C                    1.00000
	O                    2.00000

-----------------------------------Gas phase-----------------------------------

Total pressure: 75.36      atmospheres          (Peng-Robinson calculation)
    Gas volume:   1.00e+00 liters
  Molar volume:   3.56e-01 liters/mole
   P * Vm / RT:  0.83166  (Compressibility Factor Z) 

                                                        Moles in gas
                                            ----------------------------------
Component         log P           P    phi     Initial       Final       Delta

CO2(g)             1.86   7.288e+01  0.848   1.789e+00   2.716e+00   9.273e-01
H2O(g)             0.40   2.485e+00  0.687   7.733e-02   9.261e-02   1.528e-02

-----------------------------Solution composition------------------------------

	Elements           Molality       Moles

	C                 2.842e-01   2.838e-01
	Cl                4.007e+00   4.000e+00
	Na                4.007e+00   4.000e+00

----------------------------Description of solution----------------------------

                                       pH  =   2.994      Charge balance
                                       pe  =   4.000      Adjusted to redox equilibrium
      Specific Conductance (µS/cm, 120°C)  = 598895
                          Density (g/cm³)  =   1.08345
                               Volume (L)  =   1.14873
                        Viscosity (mPa s)  =   0.38087
                        Activity of water  =   0.848
                 Ionic strength (mol/kgw)  =   4.007e+00
                       Mass of water (kg)  =   9.983e-01
                 Total alkalinity (eq/kg)  =   5.955e-12
                       Total CO2 (mol/kg)  =   2.842e-01
                         Temperature (°C)  = 120.00
                           Pressure (atm)  = 75.36
                  Electrical balance (eq)  =  -5.188e-09
 Percent error, 100*(Cat-|An|)/(Cat+|An|)  =  -0.00
                               Iterations  =  21
                         Gamma iterations  =   3
                      Osmotic coefficient  =   1.10172
                         Density of water  =   0.94685
                                  Total H  = 1.108272e+02
                                  Total O  = 5.598112e+01

----------------------------Distribution of species----------------------------

                                                    MacInnes  MacInnes
                                MacInnes       Log       Log       Log    mole V
   Species          Molality    Activity  Molality  Activity     Gamma   cm³/mol

   H+              5.589e-04   1.015e-03    -3.253    -2.994     0.259      0.00
   OH-             2.439e-09   9.711e-10    -8.613    -9.013    -0.400      1.20
   H2O             5.551e+01   8.481e-01     1.744    -0.072     0.000     19.03
C(4)          2.842e-01
   CO2             2.837e-01   5.166e-01    -0.547    -0.287     0.260     40.66
   HCO3-           5.589e-04   1.350e-04    -3.253    -3.870    -0.617     28.91
   CO3-2           3.475e-10   8.259e-12    -9.459   -11.083    -1.624      1.55
Cl            4.007e+00
   Cl-             4.007e+00   2.172e+00     0.603     0.337    -0.266     18.67
Na            4.007e+00
   Na+             4.007e+00   3.655e+00     0.603     0.563    -0.040      2.04

------------------------------Saturation indices-------------------------------

  Phase               SI** log IAP   log K(393 K,  75 atm)

  CO2(g)            1.79     -0.29   -2.08  CO2	 Pressure  72.9 atm, phi 0.848
  H2O(g)            0.23     -0.07   -0.30  H2O	 Pressure   2.5 atm, phi 0.687
  Halite           -0.65      0.90    1.54  NaCl
  Nahcolite        -2.81    -13.51  -10.71  NaHCO3
  Natron           -9.65    -10.67   -1.02  Na2CO3:10H2O
  Trona           -12.29    -23.61  -11.33  Na3H(CO3)2:2H2O

**For a gas, SI = log10(fugacity). Fugacity = pressure * phi / 1 atm.
  For ideal gases, phi = 1.

Reaction step 8.

Using solution 1.	
Using gas phase 1.	
Using reaction 1.	

Reaction 1.	

	  1.000e+00 moles of the following reaction have been added:

	                 Relative
	Reactant            moles

	CO2                  1.00000

	                 Relative
	Element             moles
	C                    1.00000
	O                    2.00000

-----------------------------------Gas phase-----------------------------------

Total pressure: 96.18      atmospheres          (Peng-Robinson calculation)
    Gas volume:   1.00e+00 liters
  Molar volume:   2.65e-01 liters/mole
   P * Vm / RT:  0.79120  (Compressibility Factor Z) 

                                                        Moles in gas
                                            ----------------------------------
Component         log P           P    phi     Initial       Final       Delta

CO2(g)             1.97   9.338e+01  0.811   2.716e+00   3.658e+00   9.420e-01
H2O(g)             0.45   2.803e+00  0.616   9.261e-02   1.098e-01   1.722e-02

-----------------------------Solution composition------------------------------

	Elements           Molality       Moles

	C                 3.424e-01   3.417e-01
	Cl                4.008e+00   4.000e+00
	Na                4.008e+00   4.000e+00

----------------------------Description of solution----------------------------

                                       pH  =   2.951      Charge balance
                                       pe  =   4.000      Adjusted to redox equilibrium
      Specific Conductance (µS/cm, 120°C)  = 594739
                          Density (g/cm³)  =   1.08437
[...]
	Na                4.015e+00   4.000e+00

----------------------------Description of solution----------------------------

                                       pH  =   3.219      Charge balance
                                       pe  =   4.000      Adjusted to redox equilibrium
      Specific Conductance (µS/cm, 160°C)  = 741573
                          Density (g/cm³)  =   1.05163
                               Volume (L)  =   1.17868
                        Viscosity (mPa s)  =   0.28035
                        Activity of water  =   0.856
                 Ionic strength (mol/kgw)  =   4.016e+00
                       Mass of water (kg)  =   9.962e-01
                 Total alkalinity (eq/kg)  =   2.232e-12
                       Total CO2 (mol/kg)  =   2.180e-01
                         Temperature (°C)  = 160.00
                           Pressure (atm)  = 63.31
                  Electrical balance (eq)  =  -4.595e-10
 Percent error, 100*(Cat-|An|)/(Cat+|An|)  =  -0.00
                               Iterations  =  19
                         Gamma iterations  =   3
                      Osmotic coefficient  =   1.04813
                         Density of water  =   0.91087
                                  Total H  = 1.105906e+02
                                  Total O  = 5.572958e+01

----------------------------Distribution of species----------------------------

                                                    MacInnes  MacInnes
                                MacInnes       Log       Log       Log    mole V
   Species          Molality    Activity  Molality  Activity     Gamma   cm³/mol

   H+              4.342e-04   6.045e-04    -3.362    -3.219     0.144      0.00
   OH-             1.088e-08   4.199e-09    -7.964    -8.377    -0.413     -1.46
   H2O             5.551e+01   8.558e-01     1.744    -0.068     0.000     19.78
C(4)          2.180e-01
   CO2             2.175e-01   3.999e-01    -0.662    -0.398     0.264     46.11
   HCO3-           4.342e-04   8.691e-05    -3.362    -4.061    -0.699     27.00
   CO3-2           2.376e-10   5.218e-12    -9.624   -11.282    -1.658     -5.97
Cl            4.015e+00
   Cl-             4.015e+00   1.907e+00     0.604     0.280    -0.323     16.33
Na            4.015e+00
   Na+             4.015e+00   2.937e+00     0.604     0.468    -0.136      2.42

------------------------------Saturation indices-------------------------------

  Phase               SI** log IAP   log K(433 K,  63 atm)

  CO2(g)            1.71     -0.40   -2.11  CO2	 Pressure  56.6 atm, phi 0.911
  H2O(g)            0.72     -0.07   -0.78  H2O	 Pressure   6.7 atm, phi 0.778
  Halite           -0.66      0.75    1.41  NaCl
  Nahcolite        -3.32    -14.03  -10.71  NaHCO3
  Natron          -10.05    -11.02   -0.97  Na2CO3:10H2O
  Trona           -13.19    -24.52  -11.33  Na3H(CO3)2:2H2O

**For a gas, SI = log10(fugacity). Fugacity = pressure * phi / 1 atm.
  For ideal gases, phi = 1.

Reaction step 7.

Using solution 1.	
Using gas phase 1.	
Using reaction 1.	

Reaction 1.	

	  1.000e+00 moles of the following reaction have been added:

	                 Relative
	Reactant            moles

	CO2                  1.00000

	                 Relative
	Element             moles
	C                    1.00000
	O                    2.00000

-----------------------------------Gas phase-----------------------------------

Total pressure: 89.99      atmospheres          (Peng-Robinson calculation)
    Gas volume:   1.00e+00 liters
  Molar volume:   3.39e-01 liters/mole
   P * Vm / RT:  0.85900  (Compressibility Factor Z) 

                                                        Moles in gas
                                            ----------------------------------
Component         log P           P    phi     Initial       Final       Delta

CO2(g)             1.92   8.250e+01  0.878   1.783e+00   2.702e+00   9.192e-01
H2O(g)             0.87   7.492e+00  0.704   2.109e-01   2.454e-01   3.448e-02

-----------------------------Solution composition------------------------------

	Elements           Molality       Moles

	C                 2.992e-01   2.979e-01
	Cl                4.018e+00   4.000e+00
	Na                4.018e+00   4.000e+00

----------------------------Description of solution----------------------------

                                       pH  =   3.147      Charge balance
                                       pe  =   4.000      Adjusted to redox equilibrium
      Specific Conductance (µS/cm, 160°C)  = 734356
                          Density (g/cm³)  =   1.05273
                               Volume (L)  =   1.18023
                        Viscosity (mPa s)  =   0.28219
                        Activity of water  =   0.854
                 Ionic strength (mol/kgw)  =   4.018e+00
                       Mass of water (kg)  =   9.956e-01
                 Total alkalinity (eq/kg)  =   2.187e-12
                       Total CO2 (mol/kg)  =   2.992e-01
                         Temperature (°C)  = 160.00
                           Pressure (atm)  = 89.99
                  Electrical balance (eq)  =  -9.258e-09
 Percent error, 100*(Cat-|An|)/(Cat+|An|)  =  -0.00
                               Iterations  =  21
                         Gamma iterations  =   3
                      Osmotic coefficient  =   1.05452
                         Density of water  =   0.91243
                                  Total H  = 1.105217e+02
                                  Total O  = 5.585667e+01

----------------------------Distribution of species----------------------------

                                                    MacInnes  MacInnes
                                MacInnes       Log       Log       Log    mole V
   Species          Molality    Activity  Molality  Activity     Gamma   cm³/mol

   H+              5.111e-04   7.130e-04    -3.291    -3.147     0.145      0.00
   OH-             9.324e-09   3.609e-09    -8.030    -8.443    -0.412     -1.59
   H2O             5.551e+01   8.535e-01     1.744    -0.069     0.000     19.75
C(4)          2.992e-01
   CO2             2.987e-01   5.425e-01    -0.525    -0.266     0.259     45.89
   HCO3-           5.111e-04   1.026e-04    -3.291    -3.989    -0.698     27.13
   CO3-2           2.414e-10   5.348e-12    -9.617   -11.272    -1.655     -5.53
Cl            4.018e+00
   Cl-             4.018e+00   1.912e+00     0.604     0.281    -0.323     16.39
Na            4.018e+00
   Na+             4.018e+00   2.984e+00     0.604     0.475    -0.129      2.48

------------------------------Saturation indices-------------------------------

  Phase               SI** log IAP   log K(433 K,  90 atm)

  CO2(g)            1.86     -0.27   -2.13  CO2	 Pressure  82.5 atm, phi 0.878
  H2O(g)            0.72     -0.07   -0.79  H2O	 Pressure   7.5 atm, phi 0.704
  Halite           -0.65      0.76    1.41  NaCl
  Nahcolite        -3.25    -13.94  -10.70  NaHCO3
  Natron           -9.97    -11.01   -1.04  Na2CO3:10H2O
  Trona           -13.10    -24.40  -11.31  Na3H(CO3)2:2H2O

**For a gas, SI = log10(fugacity). Fugacity = pressure * phi / 1 atm.
  For ideal gases, phi = 1.

Reaction step 8.

Using solution 1.	
Using gas phase 1.	
Using reaction 1.	

Reaction 1.	

	  1.000e+00 moles of the following reaction have been added:

	                 Relative
	Reactant            moles

	CO2                  1.00000

	                 Relative
	Element             moles
	C                    1.00000
	O                    2.00000

-----------------------------------Gas phase-----------------------------------

Total pressure: 115.60      atmospheres          (Peng-Robinson calculation)
    Gas volume:   1.00e+00 liters
  Molar volume:   2.55e-01 liters/mole
   P * Vm / RT:  0.83023  (Compressibility Factor Z) 

                                                        Moles in gas
                                            ----------------------------------
Component         log P           P    phi     Initial       Final       Delta

CO2(g)             2.03   1.072e+02  0.848   2.702e+00   3.634e+00   9.321e-01
H2O(g)             0.92   8.354e+00  0.639   2.454e-01   2.831e-01   3.771e-02

-----------------------------Solution composition------------------------------

	Elements           Molality       Moles

	C                 3.677e-01   3.658e-01
	Cl                4.021e+00   4.000e+00
	Na                4.021e+00   4.000e+00

----------------------------Description of solution----------------------------

                                       pH  =   3.099      Charge balance
                                       pe  =   4.000      Adjusted to redox equilibrium
      Specific Conductance (µS/cm, 160°C)  = 728242
                          Density (g/cm³)  =   1.05384
                               Volume (L)  =   1.18117
                        Viscosity (mPa s)  =   0.28389
                        Activity of water  =   0.852
                 Ionic strength (mol/kgw)  =   4.021e+00
                       Mass of water (kg)  =   9.949e-01
                 Total alkalinity (eq/kg)  =   2.143e-12
                       Total CO2 (mol/kg)  =   3.677e-01
                         Temperature (°C)  = 160.00
                           Pressure (atm)  = 115.60
                  Electrical balance (eq)  =  -1.897e-08
 Percent error, 100*(Cat-|An|)/(Cat+|An|)  =  -0.00
                               Iterations  =  21
                         Gamma iterations  =   3
                      Osmotic coefficient  =   1.05983
                         Density of water  =   0.91392
                                  Total H  = 1.104462e+02
                                  Total O  = 5.595469e+01

----------------------------Distribution of species----------------------------

                                                    MacInnes  MacInnes
                                MacInnes       Log       Log       Log    mole V
   Species          Molality    Activity  Molality  Activity     Gamma   cm³/mol

   H+              5.694e-04   7.960e-04    -3.245    -3.099     0.145      0.00
   OH-             8.447e-09   3.277e-09    -8.073    -8.485    -0.411     -1.72
   H2O             5.551e+01   8.517e-01     1.744    -0.070     0.000     19.71
C(4)          3.677e-01
   CO2             3.671e-01   6.600e-01    -0.435    -0.180     0.255     45.67
   HCO3-           5.694e-04   1.145e-04    -3.245    -3.941    -0.697     27.25
   CO3-2           2.446e-10   5.471e-12    -9.611   -11.262    -1.650     -5.12
Cl            4.021e+00
   Cl-             4.021e+00   1.917e+00     0.604     0.283    -0.322     16.44
Na            4.021e+00
   Na+             4.021e+00   3.025e+00     0.604     0.481    -0.124      2.53

------------------------------Saturation indices-------------------------------

  Phase               SI** log IAP   log K(433 K, 116 atm)

  CO2(g)            1.96     -0.18   -2.14  CO2	 Pressure 107.2 atm, phi 0.848
  H2O(g)            0.73     -0.07   -0.80  H2O	 Pressure   8.4 atm, phi 0.639
  Halite           -0.65      0.76    1.41  NaCl
  Nahcolite        -3.20    -13.88  -10.69  NaHCO3
  Natron           -9.90    -11.00   -1.10  Na2CO3:10H2O
  Trona           -13.03    -24.32  -11.29  Na3H(CO3)2:2H2O

**For a gas, SI = log10(fugacity). Fugacity = pressure * phi / 1 atm.
  For ideal gases, phi = 1.

Reaction step 9.

Using solution 1.	
Using gas phase 1.	
Using reaction 1.	

Reaction 1.	

	  1.000e+00 moles of the following reaction have been added:

	                 Relative
	Reactant            moles

	CO2                  1.00000

	                 Relative
	Element             moles
	C                    1.00000
	O                    2.00000

-----------------------------------Gas phase-----------------------------------

Total pressure: 140.54      atmospheres          (Peng-Robinson calculation)
    Gas volume:   1.00e+00 liters
  Molar volume:   2.04e-01 liters/mole
   P * Vm / RT:  0.80690  (Compressibility Factor Z) 

                                                        Moles in gas
                                            ----------------------------------
Component         log P           P    phi     Initial       Final       Delta

CO2(g)             2.12   1.312e+02  0.822   3.634e+00   4.576e+00   9.419e-01
H2O(g)             0.97   9.290e+00  0.581   2.831e-01   3.239e-01   4.080e-02

-----------------------------Solution composition------------------------------

	Elements           Molality       Moles

	C                 4.264e-01   4.239e-01
	Cl                4.024e+00   4.000e+00
	Na                4.024e+00   4.000e+00

----------------------------Description of solution----------------------------

                                       pH  =   3.064      Charge balance
                                       pe  =   4.000      Adjusted to redox equilibrium
      Specific Conductance (µS/cm, 160°C)  = 722947
                          Density (g/cm³)  =   1.05497
                               Volume (L)  =   1.18164
                        Viscosity (mPa s)  =   0.28550
                        Activity of water  =   0.850
                 Ionic strength (mol/kgw)  =   4.024e+00
                       Mass of water (kg)  =   9.942e-01
                 Total alkalinity (eq/kg)  =   2.108e-12
                       Total CO2 (mol/kg)  =   4.264e-01
                         Temperature (°C)  = 160.00
                           Pressure (atm)  = 140.54
                  Electrical balance (eq)  =  -2.914e-08
 Percent error, 100*(Cat-|An|)/(Cat+|An|)  =  -0.00
                               Iterations  =  20
                         Gamma iterations  =   3
                      Osmotic coefficient  =   1.06436
                         Density of water  =   0.91535
                                  Total H  = 1.103647e+02
                                  Total O  = 5.603005e+01

----------------------------Distribution of species----------------------------

                                                    MacInnes  MacInnes
                                MacInnes       Log       Log       Log    mole V
   Species          Molality    Activity  Molality  Activity     Gamma   cm³/mol

   H+              6.166e-04   8.637e-04    -3.210    -3.064     0.146      0.00
   OH-             7.875e-09   3.061e-09    -8.104    -8.514    -0.410     -1.85
   H2O             5.551e+01   8.500e-01     1.744    -0.071     0.000     19.68
C(4)          4.264e-01
   CO2             4.257e-01   7.588e-01    -0.371    -0.120     0.251     45.47
   HCO3-           6.165e-04   1.242e-04    -3.210    -3.906    -0.696     27.37
   CO3-2           2.476e-10   5.590e-12    -9.606   -11.253    -1.646     -4.73
Cl            4.024e+00
   Cl-             4.024e+00   1.922e+00     0.605     0.284    -0.321     16.49
Na            4.024e+00
   Na+             4.024e+00   3.062e+00     0.605     0.486    -0.119      2.58

------------------------------Saturation indices-------------------------------

  Phase               SI** log IAP   log K(433 K, 141 atm)

  CO2(g)            2.03     -0.12   -2.15  CO2	 Pressure 131.2 atm, phi 0.822
  H2O(g)            0.73     -0.07   -0.80  H2O	 Pressure   9.3 atm, phi 0.581
  Halite           -0.64      0.77    1.41  NaCl
  Nahcolite        -3.16    -13.83  -10.67  NaHCO3
  Natron           -9.82    -10.99   -1.16  Na2CO3:10H2O
  Trona           -12.98    -24.25  -11.27  Na3H(CO3)2:2H2O

**For a gas, SI = log10(fugacity). Fugacity = pressure * phi / 1 atm.
  For ideal gases, phi = 1.

Reaction step 10.

Using solution 1.	
Using gas phase 1.	
Using reaction 1.	

Reaction 1.	

	  1.000e+00 moles of the following reaction have been added:

	                 Relative
	Reactant            moles

	CO2                  1.00000

	                 Relative
	Element             moles
	C                    1.00000
	O                    2.00000

-----------------------------------Gas phase-----------------------------------

Total pressure: 165.24      atmospheres          (Peng-Robinson calculation)
    Gas volume:   1.00e+00 liters
  Molar volume:   1.70e-01 liters/mole
   P * Vm / RT:  0.78888  (Compressibility Factor Z) 

                                                        Moles in gas
                                            ----------------------------------
Component         log P           P    phi     Initial       Final       Delta

CO2(g)             2.19   1.549e+02  0.799   4.576e+00   5.525e+00   9.493e-01
H2O(g)             1.01   1.031e+01  0.530   3.239e-01   3.676e-01   4.369e-02

-----------------------------Solution composition------------------------------

	Elements           Molality       Moles

	C                 4.778e-01   4.746e-01
	Cl                4.027e+00   4.000e+00
	Na                4.027e+00   4.000e+00

----------------------------Description of solution----------------------------

                                       pH  =   3.035      Charge balance
                                       pe  =   4.000      Adjusted to redox equilibrium
      Specific Conductance (µS/cm, 160°C)  = 718246
                          Density (g/cm³)  =   1.05612
                               Volume (L)  =   1.18172
                        Viscosity (mPa s)  =   0.28705
                        Activity of water  =   0.849
                 Ionic strength (mol/kgw)  =   4.027e+00
                       Mass of water (kg)  =   9.934e-01
                 Total alkalinity (eq/kg)  =   2.091e-12
                       Total CO2 (mol/kg)  =   4.778e-01
                         Temperature (°C)  = 160.00
                           Pressure (atm)  = 165.24
                  Electrical balance (eq)  =  -3.966e-08
 Percent error, 100*(Cat-|An|)/(Cat+|An|)  =  -0.00
                               Iterations  =  20
                         Gamma iterations  =   3
                      Osmotic coefficient  =   1.06833
                         Density of water  =   0.91676
                                  Total H  = 1.102773e+02
                                  Total O  = 5.608786e+01

----------------------------Distribution of species----------------------------

                                                    MacInnes  MacInnes
                                MacInnes       Log       Log       Log    mole V
   Species          Molality    Activity  Molality  Activity     Gamma   cm³/mol

   H+              6.565e-04   9.216e-04    -3.183    -3.035     0.147      0.00
   OH-             7.468e-09   2.908e-09    -8.127    -8.536    -0.410     -1.97
   H2O             5.551e+01   8.486e-01     1.744    -0.071     0.000     19.65
C(4)          4.778e-01
   CO2             4.771e-01   8.441e-01    -0.321    -0.074     0.248     45.28
   HCO3-           6.565e-04   1.325e-04    -3.183    -3.878    -0.695     27.48
   CO3-2           2.504e-10   5.707e-12    -9.601   -11.244    -1.642     -4.35
Cl            4.027e+00
   Cl-             4.027e+00   1.926e+00     0.605     0.285    -0.320     16.55
Na            4.027e+00
   Na+             4.027e+00   3.096e+00     0.605     0.491    -0.114      2.62

------------------------------Saturation indices-------------------------------

  Phase               SI** log IAP   log K(433 K, 165 atm)

  CO2(g)            2.09     -0.07   -2.17  CO2	 Pressure 154.9 atm, phi 0.799
  H2O(g)            0.74     -0.07   -0.81  H2O	 Pressure  10.3 atm, phi 0.530
  Halite           -0.64      0.78    1.42  NaCl
  Nahcolite        -3.13    -13.79  -10.66  NaHCO3
  Natron           -9.75    -10.98   -1.22  Na2CO3:10H2O
  Trona           -12.94    -24.19  -11.25  Na3H(CO3)2:2H2O

**For a gas, SI = log10(fugacity). Fugacity = pressure * phi / 1 atm.
  For ideal gases, phi = 1.

------------------
End of simulation.
------------------

------------------------------------
Reading input data for simulation 4.
------------------------------------

