WARNING: Database file from DATABASE keyword is used; command line argument ignored.
   Input file: CO2_Na2SO4
  Output file: CO2_Na2SO4.out
Database file: ../database/pitzer.dat

------------------
Reading data base.
------------------

WARNING: Unknown input, no keyword has been specified.
	SOLUTION_MASTER_SPECIES
	SOLUTION_SPECIES
	PHASES
	PITZER
	GAS_BINARY_PARAMETERS
	EXCHANGE_MASTER_SPECIES
	EXCHANGE_SPECIES
	SURFACE_MASTER_SPECIES
	SURFACE_SPECIES
	MEAN_GAMMAS
	END
------------------------------------
Reading input data for simulation 1.
------------------------------------

	DATABASE ../database/pitzer.dat
	SELECTED_OUTPUT 101
	    file                 CO2_Na2SO4_101.sel
	USER_PUNCH 101
	    headings Mu SC
	    start
	10 PUNCH STR_F$(MU, 20, 12)
	20 PUNCH STR_F$(SC, 20, 10)
	    end
	SOLUTION 1
	 pH 7 charge
	 Na 2e3
	 S(6) 1e3
	 temp 25
	EQUILIBRIUM_PHASES
	 CO2(g) 1.9
	GAS_PHASE 1
	     fixed_volume
	     CO2(g) 0
		 H2O(g) 0
	REACTION_TEMPERATURE
	 25 160 in 10
	USER_GRAPH
	 -plot_csv_file CO2_Na2SO4.dat
	 -axis_titles "Temp / oC" "CO2 solubility at 80 bar / (mol/kgw)"
	 -connect_simulations false
	 10 graph_x tc
	 20 graph_y tot("C")
	END
-------------------------------------------
Beginning of initial solution calculations.
-------------------------------------------

Initial solution 1.	

-----------------------------Solution composition------------------------------

	Elements           Molality       Moles

	Na                2.000e+00   2.000e+00
	S(6)              1.000e+00   1.000e+00

----------------------------Description of solution----------------------------

                                       pH  =   7.372      Charge balance
                                       pe  =   4.000    
      Specific Conductance (µS/cm,  25°C)  = 96601
                          Density (g/cm³)  =   1.11223
                               Volume (L)  =   1.02681
                        Viscosity (mPa s)  =   1.41568
                        Activity of water  =   0.966
                 Ionic strength (mol/kgw)  =   3.000e+00
                       Mass of water (kg)  =   1.000e+00
                 Total alkalinity (eq/kg)  =   3.900e-15
                         Temperature (°C)  =  25.00
                  Electrical balance (eq)  =  -8.393e-10
 Percent error, 100*(Cat-|An|)/(Cat+|An|)  =  -0.00
                               Iterations  =  11
                         Gamma iterations  =   4
                      Osmotic coefficient  =   0.64225
                         Density of water  =   0.99704
                                  Total H  = 1.110124e+02
                                  Total O  = 5.950622e+01

----------------------------Distribution of species----------------------------

                                                    MacInnes  MacInnes
                                MacInnes       Log       Log       Log    mole V
   Species          Molality    Activity  Molality  Activity     Gamma   cm³/mol

   OH-             4.303e-07   2.305e-07    -6.366    -6.637    -0.271      0.77
   H+              1.003e-07   4.241e-08    -6.999    -7.372    -0.374      0.00
   H2O             5.551e+01   9.659e-01     1.744    -0.015     0.000     18.07
Na            2.000e+00
   Na+             2.000e+00   9.055e-01     0.301    -0.043    -0.344      0.48
S(6)          1.000e+00
   SO4-2           1.000e+00   3.984e-02    -0.000    -1.400    -1.400     22.88
   HSO4-           3.300e-07   1.643e-07    -6.482    -6.784    -0.303     41.62

------------------------------Saturation indices-------------------------------

  Phase               SI** log IAP   log K(298 K,   1 atm)

  H2O(g)           -1.52     -0.02    1.50  H2O
  Mirabilite       -0.40     -1.64   -1.24  Na2SO4:10H2O
  Thenardite       -1.19     -1.49   -0.30  Na2SO4

**For a gas, SI = log10(fugacity). Fugacity = pressure * phi / 1 atm.
  For ideal gases, phi = 1.

-----------------------------------------
Beginning of batch-reaction calculations.
-----------------------------------------

Reaction step 1.

Using solution 1.	
Using pure phase assemblage 1.	
Using gas phase 1.	
Using temperature 1.	

-----------------------------------Gas phase-----------------------------------

Total pressure: 65.13      atmospheres          (Peng-Robinson calculation)
    Gas volume:   1.00e+00 liters
  Molar volume:   1.09e-01 liters/mole
   P * Vm / RT:  0.29102  (Compressibility Factor Z) 

                                                        Moles in gas
                                            ----------------------------------
Component         log P           P    phi     Initial       Final       Delta

CO2(g)             1.81   6.502e+01  0.657   0.000e+00   9.132e+00   9.132e+00
H2O(g)            -0.97   1.063e-01  0.293   0.000e+00   1.493e-02   1.493e-02

-------------------------------Phase assemblage--------------------------------

                                                      Moles in assemblage
Phase               SI  log IAP  log K(T, P)   Initial       Final       Delta

CO2(g)            1.63     0.13     -1.50    1.000e+01           0  -1.000e+01

-----------------------------Solution composition------------------------------

	Elements           Molality       Moles

	C                 8.679e-01   8.676e-01
	Na                2.001e+00   2.000e+00
	S                 1.000e+00   1.000e+00

----------------------------Description of solution----------------------------

                                       pH  =   3.401      Charge balance
                                       pe  =   4.000      Adjusted to redox equilibrium
      Specific Conductance (µS/cm,  25°C)  = 92016
                          Density (g/cm³)  =   1.11808
                               Volume (L)  =   1.05535
                        Viscosity (mPa s)  =   1.44911
                        Activity of water  =   0.945
                 Ionic strength (mol/kgw)  =   2.999e+00
                       Mass of water (kg)  =   9.997e-01
                 Total alkalinity (eq/kg)  =   1.124e-14
                       Total CO2 (mol/kg)  =   8.679e-01
                         Temperature (°C)  =  25.00
                           Pressure (atm)  = 65.13
                  Electrical balance (eq)  =  -8.393e-10
 Percent error, 100*(Cat-|An|)/(Cat+|An|)  =  -0.00
                               Iterations  =  38
                         Gamma iterations  =   4
                      Osmotic coefficient  =   0.81710
                         Density of water  =   0.99992
                                  Total H  = 1.109826e+02
                                  Total O  = 6.122648e+01

----------------------------Distribution of species----------------------------

                                                    MacInnes  MacInnes
                                MacInnes       Log       Log       Log    mole V
   Species          Molality    Activity  Molality  Activity     Gamma   cm³/mol

   H+              9.433e-04   3.975e-04    -3.025    -3.401    -0.375      0.00
   OH-             4.651e-11   2.515e-11   -10.332   -10.599    -0.267      0.97
   H2O             5.551e+01   9.446e-01     1.744    -0.025     0.000     18.02
C(4)          8.679e-01
   CO2             8.636e-01   1.336e+00    -0.064     0.126     0.190     34.72
   HCO3-           4.278e-03   1.542e-03    -2.369    -2.812    -0.443     28.49
   CO3-2           3.323e-09   1.890e-10    -8.479    -9.724    -1.245      4.78
Na            2.001e+00
   Na+             2.001e+00   1.030e+00     0.301     0.013    -0.288      0.68
S(6)          1.000e+00
   SO4-2           9.970e-01   4.517e-02    -0.001    -1.345    -1.344     24.10
   HSO4-           3.334e-03   1.668e-03    -2.477    -2.778    -0.301     41.45

------------------------------Saturation indices-------------------------------

  Phase               SI** log IAP   log K(298 K,  65 atm)

  Burkeite        -11.67    -12.34   -0.66  Na6CO3(SO4)2
  CO2(g)            1.63      0.13   -1.50  CO2	 Pressure  65.0 atm, phi 0.657
  H2O(g)           -1.51     -0.02    1.48  H2O	 Pressure   0.1 atm, phi 0.293
  Mirabilite       -0.34     -1.57   -1.23  Na2SO4:10H2O
  Nahcolite        -2.41    -13.11  -10.70  NaHCO3
  Natron           -8.91     -9.95   -1.04  Na2CO3:10H2O
  Thenardite       -1.05     -1.32   -0.27  Na2SO4
  Trona           -11.54    -22.86  -11.32  Na3H(CO3)2:2H2O

**For a gas, SI = log10(fugacity). Fugacity = pressure * phi / 1 atm.
  For ideal gases, phi = 1.

Reaction step 2.

Using solution 1.	
Using pure phase assemblage 1.	
Using gas phase 1.	
Using temperature 1.	

-----------------------------------Gas phase-----------------------------------

Total pressure: 79.86      atmospheres          (Peng-Robinson calculation)
    Gas volume:   1.00e+00 liters
  Molar volume:   1.48e-01 liters/mole
   P * Vm / RT:  0.45860  (Compressibility Factor Z) 

                                                        Moles in gas
                                            ----------------------------------
Component         log P           P    phi     Initial       Final       Delta

CO2(g)             1.90   7.966e+01  0.649   0.000e+00   6.760e+00   6.760e+00
H2O(g)            -0.70   2.000e-01  0.364   0.000e+00   1.697e-02   1.697e-02

-------------------------------Phase assemblage--------------------------------

                                                      Moles in assemblage
Phase               SI  log IAP  log K(T, P)   Initial       Final       Delta

CO2(g)            1.71     0.04     -1.67    1.000e+01   2.509e+00  -7.491e+00

-----------------------------Solution composition------------------------------

	Elements           Molality       Moles

	C                 7.319e-01   7.317e-01
	Na                2.001e+00   2.000e+00
	S                 1.000e+00   1.000e+00

----------------------------Description of solution----------------------------

                                       pH  =   3.478      Charge balance
                                       pe  =   4.000      Adjusted to redox equilibrium
      Specific Conductance (µS/cm,  40°C)  = 125132
                          Density (g/cm³)  =   1.11109
                               Volume (L)  =   1.05656
                        Viscosity (mPa s)  =   1.02599
                        Activity of water  =   0.947
                 Ionic strength (mol/kgw)  =   2.998e+00
                       Mass of water (kg)  =   9.996e-01
                 Total alkalinity (eq/kg)  =   4.083e-14
                       Total CO2 (mol/kg)  =   7.319e-01
                         Temperature (°C)  =  40.00
                           Pressure (atm)  = 79.86
                  Electrical balance (eq)  =  -8.394e-10
 Percent error, 100*(Cat-|An|)/(Cat+|An|)  =  -0.00
                               Iterations  =  38
                         Gamma iterations  =   4
                      Osmotic coefficient  =   0.80828
                         Density of water  =   0.99564
                                  Total H  = 1.109785e+02
                                  Total O  = 6.095255e+01

----------------------------Distribution of species----------------------------

                                                    MacInnes  MacInnes
                                MacInnes       Log       Log       Log    mole V
   Species          Molality    Activity  Molality  Activity     Gamma   cm³/mol

   H+              8.340e-04   3.328e-04    -3.079    -3.478    -0.399      0.00
   OH-             1.605e-10   8.772e-11    -9.795   -10.057    -0.262      1.31
   H2O             5.551e+01   9.471e-01     1.744    -0.024     0.000     18.09
C(4)          7.319e-01
   CO2             7.270e-01   1.102e+00    -0.138     0.042     0.181     35.38
   HCO3-           4.949e-03   1.745e-03    -2.305    -2.758    -0.453     29.25
   CO3-2           5.642e-09   3.304e-10    -8.249    -9.481    -1.232      5.53
Na            2.001e+00
   Na+             2.001e+00   1.026e+00     0.301     0.011    -0.290      1.09
S(6)          1.000e+00
   SO4-2           9.963e-01   4.658e-02    -0.002    -1.332    -1.330     24.46
   HSO4-           4.115e-03   2.017e-03    -2.386    -2.695    -0.310     42.24

------------------------------Saturation indices-------------------------------

  Phase               SI** log IAP   log K(313 K,  80 atm)

  Burkeite        -11.43    -12.08   -0.65  Na6CO3(SO4)2
  CO2(g)            1.71      0.04   -1.67  CO2	 Pressure  79.7 atm, phi 0.649
  H2O(g)           -1.14     -0.02    1.11  H2O	 Pressure   0.2 atm, phi 0.364
  Mirabilite       -0.89     -1.55   -0.66  Na2SO4:10H2O
  Nahcolite        -2.25    -12.95  -10.70  NaHCO3
  Natron           -8.62     -9.70   -1.08  Na2CO3:10H2O
  Thenardite       -0.97     -1.31   -0.34  Na2SO4
  Trona           -11.14    -22.45  -11.31  Na3H(CO3)2:2H2O

**For a gas, SI = log10(fugacity). Fugacity = pressure * phi / 1 atm.
  For ideal gases, phi = 1.

Reaction step 3.

Using solution 1.	
Using pure phase assemblage 1.	
Using gas phase 1.	
Using temperature 1.	

-----------------------------------Gas phase-----------------------------------

Total pressure: 79.97      atmospheres          (Peng-Robinson calculation)
    Gas volume:   1.00e+00 liters
  Molar volume:   2.05e-01 liters/mole
   P * Vm / RT:  0.60830  (Compressibility Factor Z) 

                                                        Moles in gas
                                            ----------------------------------
Component         log P           P    phi     Initial       Final       Delta

CO2(g)             1.90   7.964e+01  0.702   0.000e+00   4.862e+00   4.862e+00
H2O(g)            -0.48   3.309e-01  0.468   0.000e+00   2.020e-02   2.020e-02

-------------------------------Phase assemblage--------------------------------

                                                      Moles in assemblage
Phase               SI  log IAP  log K(T, P)   Initial       Final       Delta

CO2(g)            1.75    -0.05     -1.80    1.000e+01   4.538e+00  -5.462e+00

-----------------------------Solution composition------------------------------

	Elements           Molality       Moles

	C                 5.999e-01   5.996e-01
	Na                2.001e+00   2.000e+00
	S                 1.000e+00   1.000e+00

----------------------------Description of solution----------------------------

                                       pH  =   3.585      Charge balance
                                       pe  =   4.000      Adjusted to redox equilibrium
      Specific Conductance (µS/cm,  55°C)  = 159585
                          Density (g/cm³)  =   1.10307
                               Volume (L)  =   1.05892
                        Viscosity (mPa s)  =   0.77256
                        Activity of water  =   0.950
                 Ionic strength (mol/kgw)  =   2.997e+00
                       Mass of water (kg)  =   9.995e-01
                 Total alkalinity (eq/kg)  =   3.735e-14
                       Total CO2 (mol/kg)  =   5.999e-01
                         Temperature (°C)  =  55.00
                           Pressure (atm)  = 79.97
                  Electrical balance (eq)  =  -8.395e-10
 Percent error, 100*(Cat-|An|)/(Cat+|An|)  =  -0.00
                               Iterations  =  39
                         Gamma iterations  =   4
                      Osmotic coefficient  =   0.79238
                         Density of water  =   0.98911
                                  Total H  = 1.109720e+02
                                  Total O  = 6.068526e+01

----------------------------Distribution of species----------------------------

                                                    MacInnes  MacInnes
                                MacInnes       Log       Log       Log    mole V
   Species          Molality    Activity  Molality  Activity     Gamma   cm³/mol

   H+              6.894e-04   2.599e-04    -3.162    -3.585    -0.424      0.00
   OH-             5.102e-10   2.810e-10    -9.292    -9.551    -0.259      1.35
   H2O             5.551e+01   9.499e-01     1.744    -0.022     0.000     18.21
C(4)          5.999e-01
   CO2             5.945e-01   8.943e-01    -0.226    -0.049     0.177     36.09
   HCO3-           5.417e-03   1.862e-03    -2.266    -2.730    -0.464     29.53
   CO3-2           8.785e-09   5.227e-10    -8.056    -9.282    -1.226      5.50
Na            2.001e+00
   Na+             2.001e+00   1.003e+00     0.301     0.001    -0.300      1.35
S(6)          1.000e+00
   SO4-2           9.957e-01   4.587e-02    -0.002    -1.338    -1.337     24.00
   HSO4-           4.728e-03   2.264e-03    -2.325    -2.645    -0.320     42.76

------------------------------Saturation indices-------------------------------

  Phase               SI** log IAP   log K(328 K,  80 atm)

  Burkeite        -11.30    -11.95   -0.66  Na6CO3(SO4)2
  CO2(g)            1.75     -0.05   -1.80  CO2	 Pressure  79.6 atm, phi 0.702
  H2O(g)           -0.81     -0.02    0.79  H2O	 Pressure   0.3 atm, phi 0.468
  Mirabilite       -1.33     -1.56   -0.23  Na2SO4:10H2O
  Nahcolite        -2.16    -12.87  -10.70  NaHCO3
  Natron           -8.44     -9.50   -1.07  Na2CO3:10H2O
  Thenardite       -0.92     -1.34   -0.41  Na2SO4
  Trona           -10.88    -22.19  -11.31  Na3H(CO3)2:2H2O

**For a gas, SI = log10(fugacity). Fugacity = pressure * phi / 1 atm.
  For ideal gases, phi = 1.

Reaction step 4.

Using solution 1.	
Using pure phase assemblage 1.	
Using gas phase 1.	
Using temperature 1.	

-----------------------------------Gas phase-----------------------------------

Total pressure: 80.26      atmospheres          (Peng-Robinson calculation)
    Gas volume:   1.00e+00 liters
  Molar volume:   2.41e-01 liters/mole
   P * Vm / RT:  0.68591  (Compressibility Factor Z) 

                                                        Moles in gas
                                            ----------------------------------
Component         log P           P    phi     Initial       Final       Delta

CO2(g)             1.90   7.969e+01  0.742   0.000e+00   4.126e+00   4.126e+00
H2O(g)            -0.24   5.754e-01  0.532   0.000e+00   2.979e-02   2.979e-02

-------------------------------Phase assemblage--------------------------------

                                                      Moles in assemblage
Phase               SI  log IAP  log K(T, P)   Initial       Final       Delta

CO2(g)            1.77    -0.12     -1.89    1.000e+01   5.365e+00  -4.635e+00

-----------------------------Solution composition------------------------------

	Elements           Molality       Moles

	C                 5.094e-01   5.090e-01
	Na                2.001e+00   2.000e+00
	S                 1.001e+00   1.000e+00

----------------------------Description of solution----------------------------

                                       pH  =   3.702      Charge balance
                                       pe  =   4.000      Adjusted to redox equilibrium
      Specific Conductance (µS/cm,  70°C)  = 195700
                          Density (g/cm³)  =   1.09440
                               Volume (L)  =   1.06351
                        Viscosity (mPa s)  =   0.60836
                        Activity of water  =   0.952
                 Ionic strength (mol/kgw)  =   2.997e+00
                       Mass of water (kg)  =   9.994e-01
                 Total alkalinity (eq/kg)  =   5.644e-14
                       Total CO2 (mol/kg)  =   5.094e-01
                         Temperature (°C)  =  70.00
                           Pressure (atm)  = 80.26
                  Electrical balance (eq)  =  -8.396e-10
 Percent error, 100*(Cat-|An|)/(Cat+|An|)  =  -0.00
                               Iterations  =  36
                         Gamma iterations  =   4
                      Osmotic coefficient  =   0.77667
                         Density of water  =   0.98127
                                  Total H  = 1.109529e+02
                                  Total O  = 6.049452e+01

----------------------------Distribution of species----------------------------

                                                    MacInnes  MacInnes
                                MacInnes       Log       Log       Log    mole V
   Species          Molality    Activity  Molality  Activity     Gamma   cm³/mol

   H+              5.590e-04   1.987e-04    -3.253    -3.702    -0.449      0.00
   OH-             1.469e-09   8.127e-10    -8.833    -9.090    -0.257      1.19
   H2O             5.551e+01   9.520e-01     1.744    -0.021     0.000     18.36
C(4)          5.094e-01
   CO2             5.035e-01   7.554e-01    -0.298    -0.122     0.176     36.88
   HCO3-           5.865e-03   1.959e-03    -2.232    -2.708    -0.476     29.53
   CO3-2           1.288e-08   7.684e-10    -7.890    -9.114    -1.224      4.99
Na            2.001e+00
   Na+             2.001e+00   9.729e-01     0.301    -0.012    -0.313      1.53
S(6)          1.001e+00
   SO4-2           9.953e-01   4.379e-02    -0.002    -1.359    -1.357     23.17
   HSO4-           5.306e-03   2.473e-03    -2.275    -2.607    -0.332     43.07

------------------------------Saturation indices-------------------------------

  Phase               SI** log IAP   log K(343 K,  80 atm)

  Burkeite        -11.24    -11.90   -0.66  Na6CO3(SO4)2
  CO2(g)            1.77     -0.12   -1.89  CO2	 Pressure  79.7 atm, phi 0.742
  H2O(g)           -0.51     -0.02    0.49  H2O	 Pressure   0.6 atm, phi 0.532
  Mirabilite       -1.67     -1.60    0.08  Na2SO4:10H2O
  Nahcolite        -2.12    -12.83  -10.70  NaHCO3
  Natron           -8.29     -9.35   -1.06  Na2CO3:10H2O
  Thenardite       -0.88     -1.38   -0.50  Na2SO4
  Trona           -10.69    -22.01  -11.32  Na3H(CO3)2:2H2O

**For a gas, SI = log10(fugacity). Fugacity = pressure * phi / 1 atm.
  For ideal gases, phi = 1.

Reaction step 5.

Using solution 1.	
Using pure phase assemblage 1.	
Using gas phase 1.	
Using temperature 1.	

-----------------------------------Gas phase-----------------------------------

Total pressure: 80.73      atmospheres          (Peng-Robinson calculation)
    Gas volume:   1.00e+00 liters
  Molar volume:   2.69e-01 liters/mole
   P * Vm / RT:  0.73887  (Compressibility Factor Z) 

                                                        Moles in gas
                                            ----------------------------------
Component         log P           P    phi     Initial       Final       Delta

CO2(g)             1.90   7.976e+01  0.776   0.000e+00   3.673e+00   3.673e+00
H2O(g)            -0.01   9.761e-01  0.581   0.000e+00   4.495e-02   4.495e-02

-------------------------------Phase assemblage--------------------------------

                                                      Moles in assemblage
Phase               SI  log IAP  log K(T, P)   Initial       Final       Delta

CO2(g)            1.79    -0.18     -1.97    1.000e+01   5.879e+00  -4.121e+00

-----------------------------Solution composition------------------------------

	Elements           Molality       Moles

	C                 4.484e-01   4.480e-01
	Na                2.002e+00   2.000e+00
	S                 1.001e+00   1.000e+00

----------------------------Description of solution----------------------------

                                       pH  =   3.824      Charge balance
                                       pe  =   4.000      Adjusted to redox equilibrium
      Specific Conductance (µS/cm,  85°C)  = 234609
                          Density (g/cm³)  =   1.08496
                               Volume (L)  =   1.07004
                        Viscosity (mPa s)  =   0.49555
                        Activity of water  =   0.954
                 Ionic strength (mol/kgw)  =   2.997e+00
                       Mass of water (kg)  =   9.991e-01
                 Total alkalinity (eq/kg)  =   9.676e-14
                       Total CO2 (mol/kg)  =   4.484e-01
                         Temperature (°C)  =  85.00
                           Pressure (atm)  = 80.73
                  Electrical balance (eq)  =  -8.401e-10
 Percent error, 100*(Cat-|An|)/(Cat+|An|)  =  -0.00
                               Iterations  =  36
                         Gamma iterations  =   4
                      Osmotic coefficient  =   0.76076
                         Density of water  =   0.97225
                                  Total H  = 1.109225e+02
                                  Total O  = 6.035723e+01

----------------------------Distribution of species----------------------------

                                                    MacInnes  MacInnes
                                MacInnes       Log       Log       Log    mole V
   Species          Molality    Activity  Molality  Activity     Gamma   cm³/mol

   H+              4.486e-04   1.498e-04    -3.348    -3.824    -0.476      0.00
   OH-             3.864e-09   2.138e-09    -8.413    -8.670    -0.257      0.86
   H2O             5.551e+01   9.538e-01     1.744    -0.021     0.000     18.53
C(4)          4.484e-01
   CO2             4.421e-01   6.629e-01    -0.355    -0.179     0.176     37.80
   HCO3-           6.320e-03   2.044e-03    -2.199    -2.690    -0.490     29.32
   CO3-2           1.796e-08   1.060e-09    -7.746    -8.975    -1.229      4.08
Na            2.002e+00
   Na+             2.002e+00   9.387e-01     0.301    -0.027    -0.329      1.68
S(6)          1.001e+00
   SO4-2           9.951e-01   4.074e-02    -0.002    -1.390    -1.388     22.09
   HSO4-           5.872e-03   2.652e-03    -2.231    -2.576    -0.345     43.24

------------------------------Saturation indices-------------------------------

  Phase               SI** log IAP   log K(358 K,  81 atm)

  Burkeite        -11.26    -11.92   -0.66  Na6CO3(SO4)2
  CO2(g)            1.79     -0.18   -1.97  CO2	 Pressure  79.8 atm, phi 0.776
  H2O(g)           -0.25     -0.02    0.23  H2O	 Pressure   1.0 atm, phi 0.581
  Mirabilite       -1.91     -1.65    0.26  Na2SO4:10H2O
  Nahcolite        -2.12    -12.83  -10.70  NaHCO3
  Natron           -8.18     -9.24   -1.05  Na2CO3:10H2O
  Thenardite       -0.85     -1.44   -0.59  Na2SO4
  Trona           -10.58    -21.90  -11.32  Na3H(CO3)2:2H2O

**For a gas, SI = log10(fugacity). Fugacity = pressure * phi / 1 atm.
  For ideal gases, phi = 1.

Reaction step 6.

Using solution 1.	
Using pure phase assemblage 1.	
Using gas phase 1.	
Using temperature 1.	

-----------------------------------Gas phase-----------------------------------

Total pressure: 81.45      atmospheres          (Peng-Robinson calculation)
    Gas volume:   1.00e+00 liters
  Molar volume:   2.92e-01 liters/mole
   P * Vm / RT:  0.77783  (Compressibility Factor Z) 

                                                        Moles in gas
                                            ----------------------------------
Component         log P           P    phi     Initial       Final       Delta

CO2(g)             1.90   7.985e+01  0.804   0.000e+00   3.352e+00   3.352e+00
H2O(g)             0.20   1.601e+00  0.620   0.000e+00   6.721e-02   6.721e-02

-------------------------------Phase assemblage--------------------------------

                                                      Moles in assemblage
Phase               SI  log IAP  log K(T, P)   Initial       Final       Delta

CO2(g)            1.81    -0.22     -2.03    1.000e+01   6.240e+00  -3.760e+00

-----------------------------Solution composition------------------------------

	Elements           Molality       Moles

	C                 4.078e-01   4.073e-01
	Na                2.003e+00   2.000e+00
	S                 1.001e+00   1.000e+00

----------------------------Description of solution----------------------------

                                       pH  =   3.950      Charge balance
                                       pe  =   4.000      Adjusted to redox equilibrium
      Specific Conductance (µS/cm, 100°C)  = 277981
                          Density (g/cm³)  =   1.07464
                               Volume (L)  =   1.07827
                        Viscosity (mPa s)  =   0.41462
                        Activity of water  =   0.955
                 Ionic strength (mol/kgw)  =   2.998e+00
                       Mass of water (kg)  =   9.987e-01
                 Total alkalinity (eq/kg)  =   1.773e-13
                       Total CO2 (mol/kg)  =   4.078e-01
                         Temperature (°C)  = 100.00
                           Pressure (atm)  = 81.45
                  Electrical balance (eq)  =  -8.411e-10
 Percent error, 100*(Cat-|An|)/(Cat+|An|)  =  -0.00
                               Iterations  =  37
                         Gamma iterations  =   4
                      Osmotic coefficient  =   0.74442
                         Density of water  =   0.96219
                                  Total H  = 1.108780e+02
                                  Total O  = 6.025359e+01

----------------------------Distribution of species----------------------------

                                                    MacInnes  MacInnes
                                MacInnes       Log       Log       Log    mole V
   Species          Molality    Activity  Molality  Activity     Gamma   cm³/mol

   H+              3.583e-04   1.121e-04    -3.446    -3.950    -0.505      0.00
   OH-             9.366e-09   5.165e-09    -8.028    -8.287    -0.258      0.35
   H2O             5.551e+01   9.553e-01     1.744    -0.020     0.000     18.72
C(4)          4.078e-01
   CO2             4.010e-01   6.015e-01    -0.397    -0.221     0.176     38.87
   HCO3-           6.796e-03   2.119e-03    -2.168    -2.674    -0.506     28.95
   CO3-2           2.406e-08   1.382e-09    -7.619    -8.859    -1.241      2.81
Na            2.003e+00
   Na+             2.003e+00   9.011e-01     0.302    -0.045    -0.347      1.81
S(6)          1.001e+00
   SO4-2           9.949e-01   3.707e-02    -0.002    -1.431    -1.429     20.83
   HSO4-           6.438e-03   2.808e-03    -2.191    -2.552    -0.360     43.30

------------------------------Saturation indices-------------------------------

  Phase               SI** log IAP   log K(373 K,  81 atm)

  Burkeite        -11.33    -11.99   -0.66  Na6CO3(SO4)2
  CO2(g)            1.81     -0.22   -2.03  CO2	 Pressure  79.8 atm, phi 0.804
  H2O(g)           -0.00     -0.02   -0.02  H2O	 Pressure   1.6 atm, phi 0.620
  Mirabilite       -2.06     -1.72    0.34  Na2SO4:10H2O
  Nahcolite        -2.15    -12.85  -10.70  NaHCO3
  Natron           -8.10     -9.15   -1.05  Na2CO3:10H2O
  Thenardite       -0.83     -1.52   -0.69  Na2SO4
  Trona           -10.53    -21.84  -11.32  Na3H(CO3)2:2H2O

**For a gas, SI = log10(fugacity). Fugacity = pressure * phi / 1 atm.
  For ideal gases, phi = 1.

Reaction step 7.

Using solution 1.	
Using pure phase assemblage 1.	
Using gas phase 1.	
Using temperature 1.	

-----------------------------------Gas phase-----------------------------------

Total pressure: 82.49      atmospheres          (Peng-Robinson calculation)
    Gas volume:   1.00e+00 liters
  Molar volume:   3.12e-01 liters/mole
   P * Vm / RT:  0.80727  (Compressibility Factor Z) 

                                                        Moles in gas
                                            ----------------------------------
Component         log P           P    phi     Initial       Final       Delta

CO2(g)             1.90   7.995e+01  0.827   0.000e+00   3.109e+00   3.109e+00
H2O(g)             0.40   2.538e+00  0.650   0.000e+00   9.871e-02   9.871e-02

-------------------------------Phase assemblage--------------------------------

                                                      Moles in assemblage
Phase               SI  log IAP  log K(T, P)   Initial       Final       Delta

CO2(g)            1.82    -0.25     -2.07    1.000e+01   6.509e+00  -3.491e+00

-----------------------------Solution composition------------------------------

	Elements           Molality       Moles

	C                 3.819e-01   3.812e-01
	Na                2.004e+00   2.000e+00
	S                 1.002e+00   1.000e+00

----------------------------Description of solution----------------------------

                                       pH  =   4.080      Charge balance
                                       pe  =   4.000      Adjusted to redox equilibrium
      Specific Conductance (µS/cm, 115°C)  = 324772
                          Density (g/cm³)  =   1.05930
                               Volume (L)  =   1.09226
                        Viscosity (mPa s)  =   0.35144
                        Activity of water  =   0.956
                 Ionic strength (mol/kgw)  =   2.999e+00
                       Mass of water (kg)  =   9.981e-01
                 Total alkalinity (eq/kg)  =   3.168e-13
                       Total CO2 (mol/kg)  =   3.819e-01
                         Temperature (°C)  = 115.00
                           Pressure (atm)  = 82.49
                  Electrical balance (eq)  =  -8.438e-10
 Percent error, 100*(Cat-|An|)/(Cat+|An|)  =  -0.00
                               Iterations  =  38
                         Gamma iterations  =   4
                      Osmotic coefficient  =   0.72872
                         Density of water  =   0.94708
                                  Total H  = 1.108150e+02
                                  Total O  = 6.016985e+01

----------------------------Distribution of species----------------------------

                                                    MacInnes  MacInnes
                                MacInnes       Log       Log       Log    mole V
   Species          Molality    Activity  Molality  Activity     Gamma   cm³/mol

   H+              2.842e-04   8.316e-05    -3.546    -4.080    -0.534      0.00
   OH-             2.111e-08   1.158e-08    -7.675    -7.936    -0.261     -0.40
   H2O             5.551e+01   9.565e-01     1.744    -0.019     0.000     19.02
C(4)          3.819e-01
   CO2             3.746e-01   5.621e-01    -0.426    -0.250     0.176     40.15
   HCO3-           7.316e-03   2.196e-03    -2.136    -2.658    -0.523     28.37
   CO3-2           3.112e-08   1.730e-09    -7.507    -8.762    -1.255      1.05
Na            2.004e+00
   Na+             2.004e+00   8.638e-01     0.302    -0.064    -0.365      1.92
S(6)          1.002e+00
   SO4-2           9.949e-01   3.340e-02    -0.002    -1.476    -1.474     19.18
   HSO4-           7.032e-03   2.956e-03    -2.153    -2.529    -0.376     43.19

------------------------------Saturation indices-------------------------------

  Phase               SI** log IAP   log K(388 K,  82 atm)

  Burkeite        -11.44    -12.10   -0.66  Na6CO3(SO4)2
  CO2(g)            1.82     -0.25   -2.07  CO2	 Pressure  80.0 atm, phi 0.827
  H2O(g)            0.22     -0.02   -0.24  H2O	 Pressure   2.5 atm, phi 0.650
  Mirabilite       -2.11     -1.80    0.32  Na2SO4:10H2O
  Nahcolite        -2.20    -12.91  -10.70  NaHCO3
  Natron           -8.04     -9.08   -1.04  Na2CO3:10H2O
  Thenardite       -0.80     -1.60   -0.81  Na2SO4
  Trona           -10.52    -21.83  -11.32  Na3H(CO3)2:2H2O

**For a gas, SI = log10(fugacity). Fugacity = pressure * phi / 1 atm.
  For ideal gases, phi = 1.

Reaction step 8.

Using solution 1.	
Using pure phase assemblage 1.	
Using gas phase 1.	
Using temperature 1.	

-----------------------------------Gas phase-----------------------------------

Total pressure: 83.96      atmospheres          (Peng-Robinson calculation)
    Gas volume:   1.00e+00 liters
  Molar volume:   3.27e-01 liters/mole
   P * Vm / RT:  0.82960  (Compressibility Factor Z) 

                                                        Moles in gas
                                            ----------------------------------
Component         log P           P    phi     Initial       Final       Delta

CO2(g)             1.90   8.007e+01  0.847   0.000e+00   2.917e+00   2.917e+00
H2O(g)             0.59   3.896e+00  0.674   0.000e+00   1.420e-01   1.420e-01

-------------------------------Phase assemblage--------------------------------

                                                      Moles in assemblage
Phase               SI  log IAP  log K(T, P)   Initial       Final       Delta

CO2(g)            1.83    -0.27     -2.10    1.000e+01   6.717e+00  -3.283e+00

-----------------------------Solution composition------------------------------

	Elements           Molality       Moles

	C                 3.669e-01   3.659e-01
	Na                2.005e+00   2.000e+00
	S                 1.003e+00   1.000e+00

----------------------------Description of solution----------------------------

                                       pH  =   4.209      Charge balance
                                       pe  =   4.000      Adjusted to redox equilibrium
      Specific Conductance (µS/cm, 130°C)  = 379329
                          Density (g/cm³)  =   1.04684
                               Volume (L)  =   1.10388
                        Viscosity (mPa s)  =   0.30570
                        Activity of water  =   0.958
                 Ionic strength (mol/kgw)  =   3.001e+00
                       Mass of water (kg)  =   9.973e-01
                 Total alkalinity (eq/kg)  =   6.480e-13
                       Total CO2 (mol/kg)  =   3.669e-01
                         Temperature (°C)  = 130.00
                           Pressure (atm)  = 83.96
                  Electrical balance (eq)  =  -8.507e-10
 Percent error, 100*(Cat-|An|)/(Cat+|An|)  =  -0.00
                               Iterations  =  39
                         Gamma iterations  =   4
                      Osmotic coefficient  =   0.71192
                         Density of water  =   0.93484
                                  Total H  = 1.107285e+02
                                  Total O  = 6.009614e+01

----------------------------Distribution of species----------------------------

                                                    MacInnes  MacInnes
                                MacInnes       Log       Log       Log    mole V
   Species          Molality    Activity  Molality  Activity     Gamma   cm³/mol

   H+              2.274e-04   6.176e-05    -3.643    -4.209    -0.566      0.00
   OH-             4.436e-08   2.408e-08    -7.353    -7.618    -0.265     -1.30
   H2O             5.551e+01   9.576e-01     1.744    -0.019     0.000     19.27
C(4)          3.669e-01
   CO2             3.591e-01   5.390e-01    -0.445    -0.268     0.176     41.69
   HCO3-           7.864e-03   2.258e-03    -2.104    -2.646    -0.542     27.70
   CO3-2           3.916e-08   2.055e-09    -7.407    -8.687    -1.280     -1.05
Na            2.005e+00
   Na+             2.005e+00   8.226e-01     0.302    -0.085    -0.387      2.06
S(6)          1.003e+00
   SO4-2           9.951e-01   2.936e-02    -0.002    -1.532    -1.530     17.60
   HSO4-           7.636e-03   3.075e-03    -2.117    -2.512    -0.395     43.04

------------------------------Saturation indices-------------------------------

  Phase               SI** log IAP   log K(403 K,  84 atm)

  Burkeite        -11.60    -12.26   -0.66  Na6CO3(SO4)2
  CO2(g)            1.83     -0.27   -2.10  CO2	 Pressure  80.1 atm, phi 0.847
  H2O(g)            0.42     -0.02   -0.44  H2O	 Pressure   3.9 atm, phi 0.674
  Mirabilite       -2.09     -1.89    0.20  Na2SO4:10H2O
  Nahcolite        -2.28    -12.98  -10.70  NaHCO3
  Natron           -8.01     -9.04   -1.04  Na2CO3:10H2O
  Thenardite       -0.76     -1.70   -0.94  Na2SO4
  Trona           -10.56    -21.88  -11.31  Na3H(CO3)2:2H2O

**For a gas, SI = log10(fugacity). Fugacity = pressure * phi / 1 atm.
  For ideal gases, phi = 1.

Reaction step 9.

Using solution 1.	
Using pure phase assemblage 1.	
Using gas phase 1.	
Using temperature 1.	

-----------------------------------Gas phase-----------------------------------

Total pressure: 85.98      atmospheres          (Peng-Robinson calculation)
    Gas volume:   1.00e+00 liters
  Molar volume:   3.38e-01 liters/mole
   P * Vm / RT:  0.84620  (Compressibility Factor Z) 

                                                        Moles in gas
                                            ----------------------------------
Component         log P           P    phi     Initial       Final       Delta

CO2(g)             1.90   8.018e+01  0.865   0.000e+00   2.761e+00   2.761e+00
H2O(g)             0.76   5.806e+00  0.691   0.000e+00   2.000e-01   2.000e-01

-------------------------------Phase assemblage--------------------------------

                                                      Moles in assemblage
Phase               SI  log IAP  log K(T, P)   Initial       Final       Delta

CO2(g)            1.84    -0.28     -2.12    1.000e+01   6.879e+00  -3.121e+00

-----------------------------Solution composition------------------------------

	Elements           Molality       Moles

	C                 3.607e-01   3.594e-01
	Na                2.008e+00   2.000e+00
	S                 1.004e+00   1.000e+00

----------------------------Description of solution----------------------------

                                       pH  =   4.339      Charge balance
                                       pe  =   4.000      Adjusted to redox equilibrium
      Specific Conductance (µS/cm, 145°C)  = 437432
                          Density (g/cm³)  =   1.03330
                               Volume (L)  =   1.11706
                        Viscosity (mPa s)  =   0.26992
                        Activity of water  =   0.959
                 Ionic strength (mol/kgw)  =   3.003e+00
                       Mass of water (kg)  =   9.962e-01
                 Total alkalinity (eq/kg)  =   1.480e-12
                       Total CO2 (mol/kg)  =   3.607e-01
                         Temperature (°C)  = 145.00
                           Pressure (atm)  = 85.98
                  Electrical balance (eq)  =  -8.678e-10
 Percent error, 100*(Cat-|An|)/(Cat+|An|)  =  -0.00
                               Iterations  =  38
                         Gamma iterations  =   4
                      Osmotic coefficient  =   0.69512
                         Density of water  =   0.92163
                                  Total H  = 1.106125e+02
                                  Total O  = 6.002499e+01

----------------------------Distribution of species----------------------------

                                                    MacInnes  MacInnes
                                MacInnes       Log       Log       Log    mole V
   Species          Molality    Activity  Molality  Activity     Gamma   cm³/mol

   H+              1.831e-04   4.587e-05    -3.737    -4.339    -0.601      0.00
   OH-             8.747e-08   4.677e-08    -7.058    -7.330    -0.272     -2.45
   H2O             5.551e+01   9.586e-01     1.744    -0.018     0.000     19.55
C(4)          3.607e-01
   CO2             3.523e-01   5.290e-01    -0.453    -0.277     0.177     43.58
   HCO3-           8.453e-03   2.312e-03    -2.073    -2.636    -0.563     26.89
   CO3-2           4.810e-08   2.341e-09    -7.318    -8.631    -1.313     -3.64
Na            2.008e+00
   Na+             2.008e+00   7.805e-01     0.303    -0.108    -0.410      2.22
S(6)          1.004e+00
   SO4-2           9.955e-01   2.541e-02    -0.002    -1.595    -1.593     15.93
   HSO4-           8.270e-03   3.177e-03    -2.082    -2.498    -0.416     42.80

------------------------------Saturation indices-------------------------------

  Phase               SI** log IAP   log K(418 K,  86 atm)

  Burkeite        -11.81    -12.47   -0.65  Na6CO3(SO4)2
  CO2(g)            1.84     -0.28   -2.12  CO2	 Pressure  80.2 atm, phi 0.865
  H2O(g)            0.60     -0.02   -0.62  H2O	 Pressure   5.8 atm, phi 0.691
  Mirabilite       -2.00     -1.99    0.01  Na2SO4:10H2O
  Nahcolite        -2.38    -13.08  -10.70  NaHCO3
  Natron           -7.99     -9.03   -1.04  Na2CO3:10H2O
  Thenardite       -0.73     -1.81   -1.08  Na2SO4
  Trona           -10.65    -21.96  -11.31  Na3H(CO3)2:2H2O

**For a gas, SI = log10(fugacity). Fugacity = pressure * phi / 1 atm.
  For ideal gases, phi = 1.

Reaction step 10.

Using solution 1.	
Using pure phase assemblage 1.	
Using gas phase 1.	
Using temperature 1.	

-----------------------------------Gas phase-----------------------------------

Total pressure: 88.69      atmospheres          (Peng-Robinson calculation)
    Gas volume:   1.00e+00 liters
  Molar volume:   3.44e-01 liters/mole
   P * Vm / RT:  0.85791  (Compressibility Factor Z) 

                                                        Moles in gas
                                            ----------------------------------
Component         log P           P    phi     Initial       Final       Delta

CO2(g)             1.90   8.026e+01  0.880   0.000e+00   2.632e+00   2.632e+00
H2O(g)             0.93   8.422e+00  0.703   0.000e+00   2.762e-01   2.762e-01

-------------------------------Phase assemblage--------------------------------

                                                      Moles in assemblage
Phase               SI  log IAP  log K(T, P)   Initial       Final       Delta

CO2(g)            1.85    -0.28     -2.12    1.000e+01   7.008e+00  -2.992e+00

-----------------------------Solution composition------------------------------

	Elements           Molality       Moles

	C                 3.620e-01   3.601e-01
	Na                2.010e+00   2.000e+00
	S                 1.005e+00   1.000e+00

----------------------------Description of solution----------------------------

                                       pH  =   4.467      Charge balance
                                       pe  =   4.000      Adjusted to redox equilibrium
      Specific Conductance (µS/cm, 160°C)  = 495722
                          Density (g/cm³)  =   1.01859
                               Volume (L)  =   1.13187
                        Viscosity (mPa s)  =   0.24124
                        Activity of water  =   0.960
                 Ionic strength (mol/kgw)  =   3.007e+00
                       Mass of water (kg)  =   9.949e-01
                 Total alkalinity (eq/kg)  =   1.637e-14
                       Total CO2 (mol/kg)  =   3.620e-01
                         Temperature (°C)  = 160.00
                           Pressure (atm)  = 88.69
                  Electrical balance (eq)  =  -9.082e-10
 Percent error, 100*(Cat-|An|)/(Cat+|An|)  =  -0.00
                               Iterations  =  40
                         Gamma iterations  =   5
                      Osmotic coefficient  =   0.67852
                         Density of water  =   0.90745
                                  Total H  = 1.104600e+02
                                  Total O  = 5.995024e+01

----------------------------Distribution of species----------------------------

                                                    MacInnes  MacInnes
                                MacInnes       Log       Log       Log    mole V
   Species          Molality    Activity  Molality  Activity     Gamma   cm³/mol

   H+              1.487e-04   3.414e-05    -3.828    -4.467    -0.639      0.00
   OH-             1.624e-07   8.519e-08    -6.789    -7.070    -0.280     -3.90
   H2O             5.551e+01   9.596e-01     1.744    -0.018     0.000     19.85
C(4)          3.620e-01
   CO2             3.529e-01   5.299e-01    -0.452    -0.276     0.177     45.90
   HCO3-           9.086e-03   2.357e-03    -2.042    -2.628    -0.586     25.91
   CO3-2           5.792e-08   2.564e-09    -7.237    -8.591    -1.354     -6.84
Na            2.010e+00
   Na+             2.010e+00   7.379e-01     0.303    -0.132    -0.435      2.41
S(6)          1.005e+00
   SO4-2           9.962e-01   2.167e-02    -0.002    -1.664    -1.663     14.13
   HSO4-           8.938e-03   3.261e-03    -2.049    -2.487    -0.438     42.45

------------------------------Saturation indices-------------------------------

  Phase               SI** log IAP   log K(433 K,  89 atm)

  Burkeite        -12.06    -12.71   -0.65  Na6CO3(SO4)2
  CO2(g)            1.85     -0.28   -2.12  CO2	 Pressure  80.3 atm, phi 0.880
  H2O(g)            0.77     -0.02   -0.79  H2O	 Pressure   8.4 atm, phi 0.703
  Mirabilite       -1.84     -2.11   -0.27  Na2SO4:10H2O
  Nahcolite        -2.49    -13.19  -10.70  NaHCO3
  Natron           -8.00     -9.03   -1.04  Na2CO3:10H2O
  Thenardite       -0.68     -1.93   -1.24  Na2SO4
  Trona           -10.77    -22.08  -11.31  Na3H(CO3)2:2H2O

**For a gas, SI = log10(fugacity). Fugacity = pressure * phi / 1 atm.
  For ideal gases, phi = 1.

------------------
End of simulation.
------------------

------------------------------------
Reading input data for simulation 2.
------------------------------------

	SOLUTION 1
	 pH 7 charge
	 Na 4e3
	 S(6) 2e3
	 temp 25
	USE equilibrium_phases 1
	 USE reaction_temperature 1
	 USE gas_phase 1
	END
-------------------------------------------
Beginning of initial solution calculations.
-------------------------------------------

Initial solution 1.	

-----------------------------Solution composition------------------------------

	Elements           Molality       Moles

	Na                4.000e+00   4.000e+00
	S(6)              2.000e+00   2.000e+00

----------------------------Description of solution----------------------------

                                       pH  =   7.397      Charge balance
                                       pe  =   4.000    
      Specific Conductance (µS/cm,  25°C)  = 117163
                          Density (g/cm³)  =   1.21070
                               Volume (L)  =   1.06061
                        Viscosity (mPa s)  =   2.27070
                        Activity of water  =   0.934
                 Ionic strength (mol/kgw)  =   6.000e+00
                       Mass of water (kg)  =   1.000e+00
                 Total alkalinity (eq/kg)  =  -6.127e-17
                         Temperature (°C)  =  25.00
                  Electrical balance (eq)  =  -2.008e-12
 Percent error, 100*(Cat-|An|)/(Cat+|An|)  =  -0.00
                               Iterations  =  12
                         Gamma iterations  =   5
                      Osmotic coefficient  =   0.63077
                         Density of water  =   0.99704
                                  Total H  = 1.110124e+02
                                  Total O  = 6.350622e+01

----------------------------Distribution of species----------------------------

                                                    MacInnes  MacInnes
                                MacInnes       Log       Log       Log    mole V
   Species          Molality    Activity  Molality  Activity     Gamma   cm³/mol

   OH-             4.361e-07   2.359e-07    -6.360    -6.627    -0.267      4.71
   H+              7.392e-08   4.007e-08    -7.131    -7.397    -0.266      0.00
   H2O             5.551e+01   9.341e-01     1.744    -0.030     0.000     18.07
Na            4.000e+00
   Na+             4.000e+00   1.737e+00     0.602     0.240    -0.362      1.25
S(6)          2.000e+00
   SO4-2           2.000e+00   3.889e-02     0.301    -1.410    -1.711     26.32
   HSO4-           3.622e-07   1.515e-07    -6.441    -6.820    -0.378     42.04

------------------------------Saturation indices-------------------------------

  Phase               SI** log IAP   log K(298 K,   1 atm)

  H2O(g)           -1.53     -0.03    1.50  H2O
  Mirabilite        0.01     -1.23   -1.24  Na2SO4:10H2O
  Thenardite       -0.63     -0.93   -0.30  Na2SO4

**For a gas, SI = log10(fugacity). Fugacity = pressure * phi / 1 atm.
  For ideal gases, phi = 1.

-----------------------------------------
Beginning of batch-reaction calculations.
-----------------------------------------

Reaction step 1.

Using solution 1.	
Using pure phase assemblage 1.	
Using gas phase 1.	
Using temperature 1.	

-----------------------------------Gas phase-----------------------------------

Total pressure: 65.13      atmospheres          (Peng-Robinson calculation)
    Gas volume:   1.00e+00 liters
  Molar volume:   1.06e-01 liters/mole
   P * Vm / RT:  0.28212  (Compressibility Factor Z) 

                                                        Moles in gas
                                            ----------------------------------
Component         log P           P    phi     Initial       Final       Delta

CO2(g)             1.81   6.502e+01  0.657   0.000e+00   9.421e+00   9.421e+00
H2O(g)            -0.98   1.058e-01  0.286   0.000e+00   1.533e-02   1.533e-02

-------------------------------Phase assemblage--------------------------------

                                                      Moles in assemblage
Phase               SI  log IAP  log K(T, P)   Initial       Final       Delta

CO2(g)            1.63     0.13     -1.50    1.000e+01           0  -1.000e+01

-----------------------------Solution composition------------------------------

	Elements           Molality       Moles

	C                 5.795e-01   5.793e-01
	Na                4.001e+00   4.000e+00
	S                 2.001e+00   2.000e+00

----------------------------Description of solution----------------------------

                                       pH  =   3.326      Charge balance
                                       pe  =   4.000      Adjusted to redox equilibrium
      Specific Conductance (µS/cm,  25°C)  = 114369
                          Density (g/cm³)  =   1.21160
                               Volume (L)  =   1.08064
                        Viscosity (mPa s)  =   2.27501
                        Activity of water  =   0.917
                 Ionic strength (mol/kgw)  =   5.999e+00
                       Mass of water (kg)  =   9.996e-01
                 Total alkalinity (eq/kg)  =   1.278e-15
                       Total CO2 (mol/kg)  =   5.795e-01
                         Temperature (°C)  =  25.00
                           Pressure (atm)  = 65.13
                  Electrical balance (eq)  =   7.887e-11
 Percent error, 100*(Cat-|An|)/(Cat+|An|)  =   0.00
                               Iterations  =  39
                         Gamma iterations  =   5
                      Osmotic coefficient  =   0.72865
                         Density of water  =   0.99992
                                  Total H  = 1.109818e+02
                                  Total O  = 6.464942e+01

----------------------------Distribution of species----------------------------

                                                    MacInnes  MacInnes
                                MacInnes       Log       Log       Log    mole V
   Species          Molality    Activity  Molality  Activity     Gamma   cm³/mol

   H+              8.705e-04   4.715e-04    -3.060    -3.326    -0.266      0.00
   OH-             3.741e-11   2.038e-11   -10.427   -10.691    -0.264      4.91
   H2O             5.551e+01   9.172e-01     1.744    -0.038     0.000     18.02
C(4)          5.795e-01
   CO2             5.742e-01   1.336e+00    -0.241     0.126     0.367     34.72
   HCO3-           5.260e-03   1.258e-03    -2.279    -2.900    -0.621     29.60
   CO3-2           4.234e-09   1.289e-10    -8.373    -9.890    -1.516      8.95
Na            4.001e+00
   Na+             4.001e+00   1.879e+00     0.602     0.274    -0.328      1.45
S(6)          2.001e+00
   SO4-2           1.996e+00   4.174e-02     0.300    -1.379    -1.680     27.49
   HSO4-           4.390e-03   1.843e-03    -2.358    -2.735    -0.377     41.86

------------------------------Saturation indices-------------------------------

  Phase               SI** log IAP   log K(298 K,  65 atm)

  Burkeite        -10.32    -11.01   -0.68  Na6CO3(SO4)2
  CO2(g)            1.63      0.13   -1.50  CO2	 Pressure  65.0 atm, phi 0.657
  H2O(g)           -1.52     -0.04    1.48  H2O	 Pressure   0.1 atm, phi 0.286
  Mirabilite        0.03     -1.21   -1.23  Na2SO4:10H2O
  Nahcolite        -2.23    -12.94  -10.71  NaHCO3
  Natron           -8.67     -9.72   -1.04  Na2CO3:10H2O
  Thenardite       -0.56     -0.83   -0.27  Na2SO4
  Trona           -11.03    -22.36  -11.33  Na3H(CO3)2:2H2O

**For a gas, SI = log10(fugacity). Fugacity = pressure * phi / 1 atm.
  For ideal gases, phi = 1.

Reaction step 2.

Using solution 1.	
Using pure phase assemblage 1.	
Using gas phase 1.	
Using temperature 1.	

-----------------------------------Gas phase-----------------------------------

Total pressure: 79.85      atmospheres          (Peng-Robinson calculation)
    Gas volume:   1.00e+00 liters
  Molar volume:   1.48e-01 liters/mole
   P * Vm / RT:  0.45893  (Compressibility Factor Z) 

                                                        Moles in gas
                                            ----------------------------------
Component         log P           P    phi     Initial       Final       Delta

CO2(g)             1.90   7.965e+01  0.649   0.000e+00   6.754e+00   6.754e+00
H2O(g)            -0.71   1.937e-01  0.364   0.000e+00   1.642e-02   1.642e-02

-------------------------------Phase assemblage--------------------------------

                                                      Moles in assemblage
Phase               SI  log IAP  log K(T, P)   Initial       Final       Delta

CO2(g)            1.71     0.04     -1.67    1.000e+01   2.760e+00  -7.240e+00

-----------------------------Solution composition------------------------------

	Elements           Molality       Moles

	C                 4.865e-01   4.863e-01
	Na                4.002e+00   4.000e+00
	S                 2.001e+00   2.000e+00

----------------------------Description of solution----------------------------

                                       pH  =   3.414      Charge balance
                                       pe  =   4.000      Adjusted to redox equilibrium
      Specific Conductance (µS/cm,  40°C)  = 157264
                          Density (g/cm³)  =   1.20468
                               Volume (L)  =   1.08344
                        Viscosity (mPa s)  =   1.60169
                        Activity of water  =   0.918
                 Ionic strength (mol/kgw)  =   5.998e+00
                       Mass of water (kg)  =   9.996e-01
                 Total alkalinity (eq/kg)  =  -1.214e-13
                       Total CO2 (mol/kg)  =   4.865e-01
                         Temperature (°C)  =  40.00
                           Pressure (atm)  = 79.85
                  Electrical balance (eq)  =  -8.654e-11
 Percent error, 100*(Cat-|An|)/(Cat+|An|)  =  -0.00
                               Iterations  =  38
                         Gamma iterations  =   5
                      Osmotic coefficient  =   0.73435
                         Density of water  =   0.99564
                                  Total H  = 1.109796e+02
                                  Total O  = 6.446241e+01

----------------------------Distribution of species----------------------------

                                                    MacInnes  MacInnes
                                MacInnes       Log       Log       Log    mole V
   Species          Molality    Activity  Molality  Activity     Gamma   cm³/mol

   H+              7.711e-04   3.855e-04    -3.113    -3.414    -0.301      0.00
   OH-             1.323e-10   7.249e-11    -9.878   -10.140    -0.261      5.35
   H2O             5.551e+01   9.177e-01     1.744    -0.037     0.000     18.09
C(4)          4.865e-01
   CO2             4.801e-01   1.102e+00    -0.319     0.042     0.361     35.38
   HCO3-           6.376e-03   1.455e-03    -2.195    -2.837    -0.642     30.39
   CO3-2           6.985e-09   2.358e-10    -8.156    -9.627    -1.472      9.44
Na            4.002e+00
   Na+             4.002e+00   1.904e+00     0.602     0.280    -0.323      1.71
S(6)          2.001e+00
   SO4-2           1.995e+00   4.498e-02     0.300    -1.347    -1.647     27.69
   HSO4-           5.605e-03   2.276e-03    -2.251    -2.643    -0.391     42.63

------------------------------Saturation indices-------------------------------

  Phase               SI** log IAP   log K(313 K,  80 atm)

  Burkeite         -9.97    -10.64   -0.67  Na6CO3(SO4)2
  CO2(g)            1.71      0.04   -1.67  CO2	 Pressure  79.7 atm, phi 0.649
  H2O(g)           -1.15     -0.04    1.11  H2O	 Pressure   0.2 atm, phi 0.364
  Mirabilite       -0.50     -1.16   -0.66  Na2SO4:10H2O
  Nahcolite        -2.06    -12.76  -10.71  NaHCO3
  Natron           -8.36     -9.44   -1.08  Na2CO3:10H2O
  Thenardite       -0.44     -0.79   -0.34  Na2SO4
  Trona           -10.58    -21.90  -11.32  Na3H(CO3)2:2H2O

**For a gas, SI = log10(fugacity). Fugacity = pressure * phi / 1 atm.
  For ideal gases, phi = 1.

Reaction step 3.

Using solution 1.	
Using pure phase assemblage 1.	
Using gas phase 1.	
Using temperature 1.	

-----------------------------------Gas phase-----------------------------------

Total pressure: 79.95      atmospheres          (Peng-Robinson calculation)
    Gas volume:   1.00e+00 liters
  Molar volume:   2.05e-01 liters/mole
   P * Vm / RT:  0.60850  (Compressibility Factor Z) 

                                                        Moles in gas
                                            ----------------------------------
Component         log P           P    phi     Initial       Final       Delta

CO2(g)             1.90   7.963e+01  0.702   0.000e+00   4.860e+00   4.860e+00
H2O(g)            -0.49   3.201e-01  0.469   0.000e+00   1.954e-02   1.954e-02

-------------------------------Phase assemblage--------------------------------

                                                      Moles in assemblage
Phase               SI  log IAP  log K(T, P)   Initial       Final       Delta

CO2(g)            1.75    -0.05     -1.80    1.000e+01   4.742e+00  -5.258e+00

-----------------------------Solution composition------------------------------

	Elements           Molality       Moles

	C                 3.988e-01   3.986e-01
	Na                4.002e+00   4.000e+00
	S                 2.001e+00   2.000e+00

----------------------------Description of solution----------------------------

                                       pH  =   3.528      Charge balance
                                       pe  =   4.000      Adjusted to redox equilibrium
      Specific Conductance (µS/cm,  55°C)  = 204035
                          Density (g/cm³)  =   1.19752
                               Volume (L)  =   1.08665
                        Viscosity (mPa s)  =   1.19632
                        Activity of water  =   0.919
                 Ionic strength (mol/kgw)  =   5.997e+00
                       Mass of water (kg)  =   9.995e-01
                 Total alkalinity (eq/kg)  =  -7.346e-14
                       Total CO2 (mol/kg)  =   3.988e-01
                         Temperature (°C)  =  55.00
                           Pressure (atm)  = 79.95
                  Electrical balance (eq)  =  -9.439e-11
 Percent error, 100*(Cat-|An|)/(Cat+|An|)  =  -0.00
                               Iterations  =  35
                         Gamma iterations  =   5
                      Osmotic coefficient  =   0.72932
                         Density of water  =   0.98911
                                  Total H  = 1.109734e+02
                                  Total O  = 6.428384e+01

----------------------------Distribution of species----------------------------

                                                    MacInnes  MacInnes
                                MacInnes       Log       Log       Log    mole V
   Species          Molality    Activity  Molality  Activity     Gamma   cm³/mol

   H+              6.429e-04   2.965e-04    -3.192    -3.528    -0.336      0.00
   OH-             4.270e-10   2.356e-10    -9.370    -9.628    -0.258      5.50
   H2O             5.551e+01   9.193e-01     1.744    -0.037     0.000     18.21
C(4)          3.988e-01
   CO2             3.915e-01   8.943e-01    -0.407    -0.049     0.359     36.09
   HCO3-           7.229e-03   1.574e-03    -2.141    -2.803    -0.662     30.74
   CO3-2           1.035e-08   3.845e-10    -7.985    -9.415    -1.430      9.18
Na            4.002e+00
   Na+             4.002e+00   1.879e+00     0.602     0.274    -0.328      1.84
S(6)          2.001e+00
   SO4-2           1.994e+00   4.561e-02     0.300    -1.341    -1.641     27.15
   HSO4-           6.586e-03   2.588e-03    -2.181    -2.587    -0.406     43.19

------------------------------Saturation indices-------------------------------

  Phase               SI** log IAP   log K(328 K,  80 atm)

  Burkeite         -9.78    -10.45   -0.67  Na6CO3(SO4)2
  CO2(g)            1.75     -0.05   -1.80  CO2	 Pressure  79.6 atm, phi 0.702
  H2O(g)           -0.82     -0.04    0.79  H2O	 Pressure   0.3 atm, phi 0.469
  Mirabilite       -0.93     -1.16   -0.23  Na2SO4:10H2O
  Nahcolite        -1.96    -12.67  -10.71  NaHCO3
  Natron           -8.16     -9.23   -1.07  Na2CO3:10H2O
  Thenardite       -0.37     -0.79   -0.42  Na2SO4
  Trona           -10.28    -21.61  -11.33  Na3H(CO3)2:2H2O

**For a gas, SI = log10(fugacity). Fugacity = pressure * phi / 1 atm.
  For ideal gases, phi = 1.

Reaction step 4.

Using solution 1.	
Using pure phase assemblage 1.	
Using gas phase 1.	
Using temperature 1.	

-----------------------------------Gas phase-----------------------------------

Total pressure: 80.23      atmospheres          (Peng-Robinson calculation)
    Gas volume:   1.00e+00 liters
  Molar volume:   2.41e-01 liters/mole
   P * Vm / RT:  0.68613  (Compressibility Factor Z) 

                                                        Moles in gas
                                            ----------------------------------
Component         log P           P    phi     Initial       Final       Delta

CO2(g)             1.90   7.968e+01  0.742   0.000e+00   4.124e+00   4.124e+00
H2O(g)            -0.25   5.563e-01  0.533   0.000e+00   2.879e-02   2.879e-02

-------------------------------Phase assemblage--------------------------------

                                                      Moles in assemblage
Phase               SI  log IAP  log K(T, P)   Initial       Final       Delta

CO2(g)            1.77    -0.12     -1.89    1.000e+01   5.537e+00  -4.463e+00

-----------------------------Solution composition------------------------------

	Elements           Molality       Moles

	C                 3.393e-01   3.391e-01
	Na                4.003e+00   4.000e+00
	S                 2.001e+00   2.000e+00

----------------------------Description of solution----------------------------

                                       pH  =   3.648      Charge balance
                                       pe  =   4.000      Adjusted to redox equilibrium
      Specific Conductance (µS/cm,  70°C)  = 254809
                          Density (g/cm³)  =   1.18970
                               Volume (L)  =   1.09145
                        Viscosity (mPa s)  =   0.93298
                        Activity of water  =   0.921
                 Ionic strength (mol/kgw)  =   5.997e+00
                       Mass of water (kg)  =   9.993e-01
                 Total alkalinity (eq/kg)  =  -6.171e-14
                       Total CO2 (mol/kg)  =   3.393e-01
                         Temperature (°C)  =  70.00
                           Pressure (atm)  = 80.23
                  Electrical balance (eq)  =  -1.089e-10
 Percent error, 100*(Cat-|An|)/(Cat+|An|)  =  -0.00
                               Iterations  =  35
                         Gamma iterations  =   5
                      Osmotic coefficient  =   0.71971
                         Density of water  =   0.98126
                                  Total H  = 1.109548e+02
                                  Total O  = 6.415563e+01

----------------------------Distribution of species----------------------------

                                                    MacInnes  MacInnes
                                MacInnes       Log       Log       Log    mole V
   Species          Molality    Activity  Molality  Activity     Gamma   cm³/mol

   H+              5.294e-04   2.251e-04    -3.276    -3.648    -0.371      0.00
   OH-             1.237e-09   6.854e-10    -8.908    -9.164    -0.256      5.48
   H2O             5.551e+01   9.210e-01     1.744    -0.036     0.000     18.36
C(4)          3.393e-01
   CO2             3.313e-01   7.554e-01    -0.480    -0.122     0.358     36.88
   HCO3-           8.032e-03   1.667e-03    -2.095    -2.778    -0.683     30.83
   CO3-2           1.415e-08   5.732e-10    -7.849    -9.242    -1.393      8.46
Na            4.003e+00
   Na+             4.003e+00   1.825e+00     0.602     0.261    -0.341      1.93
S(6)          2.001e+00
   SO4-2           1.994e+00   4.417e-02     0.300    -1.355    -1.655     26.36
   HSO4-           7.502e-03   2.847e-03    -2.125    -2.546    -0.421     43.58

------------------------------Saturation indices-------------------------------

  Phase               SI** log IAP   log K(343 K,  80 atm)

  Burkeite         -9.71    -10.38   -0.68  Na6CO3(SO4)2
  CO2(g)            1.77     -0.12   -1.89  CO2	 Pressure  79.7 atm, phi 0.742
  H2O(g)           -0.53     -0.04    0.49  H2O	 Pressure   0.6 atm, phi 0.533
  Mirabilite       -1.26     -1.19    0.07  Na2SO4:10H2O
  Nahcolite        -1.92    -12.63  -10.71  NaHCO3
  Natron           -8.01     -9.08   -1.06  Na2CO3:10H2O
  Thenardite       -0.33     -0.83   -0.50  Na2SO4
  Trona           -10.09    -21.42  -11.33  Na3H(CO3)2:2H2O

**For a gas, SI = log10(fugacity). Fugacity = pressure * phi / 1 atm.
  For ideal gases, phi = 1.

Reaction step 5.

Using solution 1.	
Using pure phase assemblage 1.	
Using gas phase 1.	
Using temperature 1.	

-----------------------------------Gas phase-----------------------------------

Total pressure: 80.69      atmospheres          (Peng-Robinson calculation)
    Gas volume:   1.00e+00 liters
  Molar volume:   2.69e-01 liters/mole
   P * Vm / RT:  0.73916  (Compressibility Factor Z) 

                                                        Moles in gas
                                            ----------------------------------
Component         log P           P    phi     Initial       Final       Delta

CO2(g)             1.90   7.975e+01  0.776   0.000e+00   3.671e+00   3.671e+00
H2O(g)            -0.03   9.437e-01  0.581   0.000e+00   4.344e-02   4.344e-02

-------------------------------Phase assemblage--------------------------------

                                                      Moles in assemblage
Phase               SI  log IAP  log K(T, P)   Initial       Final       Delta

CO2(g)            1.79    -0.18     -1.97    1.000e+01   6.030e+00  -3.970e+00

-----------------------------Solution composition------------------------------

	Elements           Molality       Moles

	C                 2.996e-01   2.993e-01
	Na                4.004e+00   4.000e+00
	S                 2.002e+00   2.000e+00

----------------------------Description of solution----------------------------

                                       pH  =   3.770      Charge balance
                                       pe  =   4.000      Adjusted to redox equilibrium
      Specific Conductance (µS/cm,  85°C)  = 310308
                          Density (g/cm³)  =   1.18092
                               Volume (L)  =   1.09786
                        Viscosity (mPa s)  =   0.75246
                        Activity of water  =   0.923
                 Ionic strength (mol/kgw)  =   5.998e+00
                       Mass of water (kg)  =   9.991e-01
                 Total alkalinity (eq/kg)  =  -6.095e-14
                       Total CO2 (mol/kg)  =   2.996e-01
                         Temperature (°C)  =  85.00
                           Pressure (atm)  = 80.69
                  Electrical balance (eq)  =  -1.267e-10
 Percent error, 100*(Cat-|An|)/(Cat+|An|)  =  -0.00
                               Iterations  =  35
                         Gamma iterations  =   5
                      Osmotic coefficient  =   0.70631
                         Density of water  =   0.97225
                                  Total H  = 1.109255e+02
                                  Total O  = 6.406144e+01

----------------------------Distribution of species----------------------------

                                                    MacInnes  MacInnes
                                MacInnes       Log       Log       Log    mole V
   Species          Molality    Activity  Molality  Activity     Gamma   cm³/mol

   H+              4.341e-04   1.699e-04    -3.362    -3.770    -0.408      0.00
   OH-             3.247e-09   1.803e-09    -8.488    -8.744    -0.255      5.32
   H2O             5.551e+01   9.229e-01     1.744    -0.035     0.000     18.53
C(4)          2.996e-01
   CO2             2.908e-01   6.629e-01    -0.536    -0.179     0.358     37.80
   HCO3-           8.816e-03   1.738e-03    -2.055    -2.760    -0.705     30.75
   CO3-2           1.817e-08   7.910e-10    -7.741    -9.102    -1.361      7.36
Na            4.004e+00
   Na+             4.004e+00   1.752e+00     0.602     0.243    -0.359      2.00
S(6)          2.002e+00
   SO4-2           1.994e+00   4.120e-02     0.300    -1.385    -1.685     25.44
   HSO4-           8.382e-03   3.063e-03    -2.077    -2.514    -0.437     43.88

------------------------------Saturation indices-------------------------------

  Phase               SI** log IAP   log K(358 K,  81 atm)

  Burkeite         -9.74    -10.41   -0.68  Na6CO3(SO4)2
  CO2(g)            1.79     -0.18   -1.97  CO2	 Pressure  79.7 atm, phi 0.776
  H2O(g)           -0.26     -0.03    0.23  H2O	 Pressure   0.9 atm, phi 0.581
  Mirabilite       -1.50     -1.25    0.26  Na2SO4:10H2O
  Nahcolite        -1.92    -12.63  -10.71  NaHCO3
  Natron           -7.91     -8.96   -1.06  Na2CO3:10H2O
  Thenardite       -0.30     -0.90   -0.59  Na2SO4
  Trona            -9.99    -21.31  -11.33  Na3H(CO3)2:2H2O

**For a gas, SI = log10(fugacity). Fugacity = pressure * phi / 1 atm.
  For ideal gases, phi = 1.

Reaction step 6.

Using solution 1.	
Using pure phase assemblage 1.	
Using gas phase 1.	
Using temperature 1.	

-----------------------------------Gas phase-----------------------------------

Total pressure: 81.38      atmospheres          (Peng-Robinson calculation)
    Gas volume:   1.00e+00 liters
  Molar volume:   2.93e-01 liters/mole
   P * Vm / RT:  0.77820  (Compressibility Factor Z) 

                                                        Moles in gas
                                            ----------------------------------
Component         log P           P    phi     Initial       Final       Delta

CO2(g)             1.90   7.983e+01  0.804   0.000e+00   3.350e+00   3.350e+00
H2O(g)             0.19   1.548e+00  0.620   0.000e+00   6.498e-02   6.498e-02

-------------------------------Phase assemblage--------------------------------

                                                      Moles in assemblage
Phase               SI  log IAP  log K(T, P)   Initial       Final       Delta

CO2(g)            1.81    -0.22     -2.03    1.000e+01   6.377e+00  -3.623e+00

-----------------------------Solution composition------------------------------

	Elements           Molality       Moles

	C                 2.734e-01   2.730e-01
	Na                4.005e+00   4.000e+00
	S                 2.003e+00   2.000e+00

----------------------------Description of solution----------------------------

                                       pH  =   3.893      Charge balance
                                       pe  =   4.000      Adjusted to redox equilibrium
      Specific Conductance (µS/cm, 100°C)  = 371487
                          Density (g/cm³)  =   1.17097
                               Volume (L)  =   1.10587
                        Viscosity (mPa s)  =   0.62351
                        Activity of water  =   0.925
                 Ionic strength (mol/kgw)  =   5.999e+00
                       Mass of water (kg)  =   9.987e-01
                 Total alkalinity (eq/kg)  =  -6.937e-14
                       Total CO2 (mol/kg)  =   2.734e-01
                         Temperature (°C)  = 100.00
                           Pressure (atm)  = 81.38
                  Electrical balance (eq)  =  -1.481e-10
 Percent error, 100*(Cat-|An|)/(Cat+|An|)  =  -0.00
                               Iterations  =  37
                         Gamma iterations  =   5
                      Osmotic coefficient  =   0.68987
                         Density of water  =   0.96218
                                  Total H  = 1.108825e+02
                                  Total O  = 6.398731e+01

----------------------------Distribution of species----------------------------

                                                    MacInnes  MacInnes
                                MacInnes       Log       Log       Log    mole V
   Species          Molality    Activity  Molality  Activity     Gamma   cm³/mol

   H+              3.562e-04   1.278e-04    -3.448    -3.893    -0.445      0.00
   OH-             7.816e-09   4.334e-09    -8.107    -8.363    -0.256      5.03
   H2O             5.551e+01   9.249e-01     1.744    -0.034     0.000     18.72
C(4)          2.734e-01
   CO2             2.638e-01   6.016e-01    -0.579    -0.221     0.358     38.87
   HCO3-           9.608e-03   1.792e-03    -2.017    -2.747    -0.729     30.54
   CO3-2           2.217e-08   1.022e-09    -7.654    -8.991    -1.336      5.91
Na            4.005e+00
   Na+             4.005e+00   1.665e+00     0.603     0.222    -0.381      2.06
S(6)          2.003e+00
   SO4-2           1.993e+00   3.729e-02     0.300    -1.428    -1.728     24.50
   HSO4-           9.251e-03   3.243e-03    -2.034    -2.489    -0.455     44.11

------------------------------Saturation indices-------------------------------

  Phase               SI** log IAP   log K(373 K,  81 atm)

  Burkeite         -9.84    -10.52   -0.68  Na6CO3(SO4)2
  CO2(g)            1.81     -0.22   -2.03  CO2	 Pressure  79.8 atm, phi 0.804
  H2O(g)           -0.02     -0.03   -0.02  H2O	 Pressure   1.5 atm, phi 0.620
  Mirabilite       -1.66     -1.32    0.33  Na2SO4:10H2O
  Nahcolite        -1.95    -12.66  -10.71  NaHCO3
  Natron           -7.84     -8.89   -1.05  Na2CO3:10H2O
  Thenardite       -0.29     -0.99   -0.70  Na2SO4
  Trona            -9.95    -21.28  -11.33  Na3H(CO3)2:2H2O

**For a gas, SI = log10(fugacity). Fugacity = pressure * phi / 1 atm.
  For ideal gases, phi = 1.

Reaction step 7.

Using solution 1.	
Using pure phase assemblage 1.	
Using gas phase 1.	
Using temperature 1.	

-----------------------------------Gas phase-----------------------------------

Total pressure: 82.39      atmospheres          (Peng-Robinson calculation)
    Gas volume:   1.00e+00 liters
  Molar volume:   3.12e-01 liters/mole
   P * Vm / RT:  0.80776  (Compressibility Factor Z) 

                                                        Moles in gas
                                            ----------------------------------
Component         log P           P    phi     Initial       Final       Delta

CO2(g)             1.90   7.994e+01  0.827   0.000e+00   3.107e+00   3.107e+00
H2O(g)             0.39   2.456e+00  0.651   0.000e+00   9.548e-02   9.548e-02

-------------------------------Phase assemblage--------------------------------

                                                      Moles in assemblage
Phase               SI  log IAP  log K(T, P)   Initial       Final       Delta

CO2(g)            1.82    -0.25     -2.07    1.000e+01   6.637e+00  -3.363e+00

-----------------------------Solution composition------------------------------

	Elements           Molality       Moles

	C                 2.568e-01   2.563e-01
	Na                4.008e+00   4.000e+00
	S                 2.004e+00   2.000e+00

----------------------------Description of solution----------------------------

                                       pH  =   4.020      Charge balance
                                       pe  =   4.000      Adjusted to redox equilibrium
      Specific Conductance (µS/cm, 115°C)  = 436828
                          Density (g/cm³)  =   1.15581
                               Volume (L)  =   1.11926
                        Viscosity (mPa s)  =   0.52393
                        Activity of water  =   0.927
                 Ionic strength (mol/kgw)  =   6.002e+00
                       Mass of water (kg)  =   9.981e-01
                 Total alkalinity (eq/kg)  =  -7.538e-14
                       Total CO2 (mol/kg)  =   2.568e-01
                         Temperature (°C)  = 115.00
                           Pressure (atm)  = 82.39
                  Electrical balance (eq)  =  -2.036e-10
 Percent error, 100*(Cat-|An|)/(Cat+|An|)  =  -0.00
                               Iterations  =  43
                         Gamma iterations  =   5
                      Osmotic coefficient  =   0.67234
                         Density of water  =   0.94708
                                  Total H  = 1.108215e+02
                                  Total O  = 6.392344e+01

----------------------------Distribution of species----------------------------

                                                    MacInnes  MacInnes
                                MacInnes       Log       Log       Log    mole V
   Species          Molality    Activity  Molality  Activity     Gamma   cm³/mol

   H+              2.911e-04   9.561e-05    -3.536    -4.020    -0.484      0.00
   OH-             1.744e-08   9.642e-09    -7.759    -8.016    -0.257      4.52
   H2O             5.551e+01   9.269e-01     1.744    -0.033     0.000     19.02
C(4)          2.568e-01
   CO2             2.464e-01   5.622e-01    -0.608    -0.250     0.358     40.15
   HCO3-           1.045e-02   1.843e-03    -1.981    -2.735    -0.754     30.15
   CO3-2           2.597e-08   1.259e-09    -7.586    -8.900    -1.315      4.00
Na            4.008e+00
   Na+             4.008e+00   1.576e+00     0.603     0.198    -0.405      2.12
S(6)          2.004e+00
   SO4-2           1.994e+00   3.327e-02     0.300    -1.478    -1.778     23.27
   HSO4-           1.016e-02   3.412e-03    -1.993    -2.467    -0.474     44.22

------------------------------Saturation indices-------------------------------

  Phase               SI** log IAP   log K(388 K,  82 atm)

  Burkeite        -10.00    -10.67   -0.67  Na6CO3(SO4)2
  CO2(g)            1.82     -0.25   -2.07  CO2	 Pressure  79.9 atm, phi 0.827
  H2O(g)            0.20     -0.03   -0.24  H2O	 Pressure   2.5 atm, phi 0.651
  Mirabilite       -1.72     -1.41    0.31  Na2SO4:10H2O
  Nahcolite        -2.02    -12.72  -10.71  NaHCO3
  Natron           -7.79     -8.83   -1.05  Na2CO3:10H2O
  Thenardite       -0.27     -1.08   -0.81  Na2SO4
  Trona            -9.97    -21.29  -11.32  Na3H(CO3)2:2H2O

**For a gas, SI = log10(fugacity). Fugacity = pressure * phi / 1 atm.
  For ideal gases, phi = 1.

Reaction step 8.

Using solution 1.	
Using pure phase assemblage 1.	
Using gas phase 1.	
Using temperature 1.	

-----------------------------------Gas phase-----------------------------------

Total pressure: 83.82      atmospheres          (Peng-Robinson calculation)
    Gas volume:   1.00e+00 liters
  Molar volume:   3.28e-01 liters/mole
   P * Vm / RT:  0.83022  (Compressibility Factor Z) 

                                                        Moles in gas
                                            ----------------------------------
Component         log P           P    phi     Initial       Final       Delta

CO2(g)             1.90   8.005e+01  0.848   0.000e+00   2.914e+00   2.914e+00
H2O(g)             0.58   3.774e+00  0.675   0.000e+00   1.374e-01   1.374e-01

-------------------------------Phase assemblage--------------------------------

                                                      Moles in assemblage
Phase               SI  log IAP  log K(T, P)   Initial       Final       Delta

CO2(g)            1.83    -0.27     -2.10    1.000e+01   6.839e+00  -3.161e+00

-----------------------------Solution composition------------------------------

	Elements           Molality       Moles

	C                 2.475e-01   2.468e-01
	Na                4.011e+00   4.000e+00
	S                 2.005e+00   2.000e+00

----------------------------Description of solution----------------------------

                                       pH  =   4.144      Charge balance
                                       pe  =   4.000      Adjusted to redox equilibrium
      Specific Conductance (µS/cm, 130°C)  = 508583
                          Density (g/cm³)  =   1.14279
                               Volume (L)  =   1.13098
                        Viscosity (mPa s)  =   0.45178
                        Activity of water  =   0.929
                 Ionic strength (mol/kgw)  =   6.005e+00
                       Mass of water (kg)  =   9.973e-01
                 Total alkalinity (eq/kg)  =  -1.101e-13
                       Total CO2 (mol/kg)  =   2.475e-01
                         Temperature (°C)  = 130.00
                           Pressure (atm)  = 83.82
                  Electrical balance (eq)  =  -2.455e-10
 Percent error, 100*(Cat-|An|)/(Cat+|An|)  =  -0.00
                               Iterations  =  39
                         Gamma iterations  =   5
                      Osmotic coefficient  =   0.65215
                         Density of water  =   0.93484
                                  Total H  = 1.107376e+02
                                  Total O  = 6.386243e+01

----------------------------Distribution of species----------------------------

                                                    MacInnes  MacInnes
                                MacInnes       Log       Log       Log    mole V
   Species          Molality    Activity  Molality  Activity     Gamma   cm³/mol

   H+              2.412e-04   7.183e-05    -3.618    -4.144    -0.526      0.00
   OH-             3.617e-08   1.982e-08    -7.442    -7.703    -0.261      3.94
   H2O             5.551e+01   9.291e-01     1.744    -0.032     0.000     19.27
C(4)          2.475e-01
   CO2             2.362e-01   5.391e-01    -0.627    -0.268     0.358     41.69
   HCO3-           1.131e-02   1.874e-03    -1.946    -2.727    -0.781     29.76
   CO3-2           2.949e-08   1.463e-09    -7.530    -8.835    -1.304      1.80
Na            4.011e+00
   Na+             4.011e+00   1.477e+00     0.603     0.169    -0.434      2.20
S(6)          2.005e+00
   SO4-2           1.994e+00   2.882e-02     0.300    -1.540    -1.840     22.47
   HSO4-           1.107e-02   3.541e-03    -1.956    -2.451    -0.495     44.37

------------------------------Saturation indices-------------------------------

  Phase               SI** log IAP   log K(403 K,  84 atm)

  Burkeite        -10.23    -10.90   -0.67  Na6CO3(SO4)2
  CO2(g)            1.83     -0.27   -2.10  CO2	 Pressure  80.0 atm, phi 0.848
  H2O(g)            0.41     -0.03   -0.44  H2O	 Pressure   3.8 atm, phi 0.675
  Mirabilite       -1.72     -1.52    0.20  Na2SO4:10H2O
  Nahcolite        -2.10    -12.81  -10.71  NaHCO3
  Natron           -7.77     -8.82   -1.04  Na2CO3:10H2O
  Thenardite       -0.26     -1.20   -0.94  Na2SO4
  Trona           -10.05    -21.37  -11.32  Na3H(CO3)2:2H2O

**For a gas, SI = log10(fugacity). Fugacity = pressure * phi / 1 atm.
  For ideal gases, phi = 1.

Reaction step 9.

Using solution 1.	
Using pure phase assemblage 1.	
Using gas phase 1.	
Using temperature 1.	

-----------------------------------Gas phase-----------------------------------

Total pressure: 85.79      atmospheres          (Peng-Robinson calculation)
    Gas volume:   1.00e+00 liters
  Molar volume:   3.39e-01 liters/mole
   P * Vm / RT:  0.84699  (Compressibility Factor Z) 

                                                        Moles in gas
                                            ----------------------------------
Component         log P           P    phi     Initial       Final       Delta

CO2(g)             1.90   8.016e+01  0.865   0.000e+00   2.758e+00   2.758e+00
H2O(g)             0.75   5.629e+00  0.693   0.000e+00   1.937e-01   1.937e-01

-------------------------------Phase assemblage--------------------------------

                                                      Moles in assemblage
Phase               SI  log IAP  log K(T, P)   Initial       Final       Delta

CO2(g)            1.84    -0.28     -2.12    1.000e+01   6.999e+00  -3.001e+00

-----------------------------Solution composition------------------------------

	Elements           Molality       Moles

	C                 2.439e-01   2.430e-01
	Na                4.015e+00   4.000e+00
	S                 2.007e+00   2.000e+00

----------------------------Description of solution----------------------------

                                       pH  =   4.267      Charge balance
                                       pe  =   4.000      Adjusted to redox equilibrium
      Specific Conductance (µS/cm, 145°C)  = 581937
                          Density (g/cm³)  =   1.12801
                               Volume (L)  =   1.14475
                        Viscosity (mPa s)  =   0.39558
                        Activity of water  =   0.931
                 Ionic strength (mol/kgw)  =   6.011e+00
                       Mass of water (kg)  =   9.963e-01
                 Total alkalinity (eq/kg)  =  -1.861e-13
                       Total CO2 (mol/kg)  =   2.439e-01
                         Temperature (°C)  = 145.00
                           Pressure (atm)  = 85.79
                  Electrical balance (eq)  =  -2.934e-10
 Percent error, 100*(Cat-|An|)/(Cat+|An|)  =  -0.00
                               Iterations  =  39
                         Gamma iterations  =   5
                      Osmotic coefficient  =   0.63095
                         Density of water  =   0.92163
                                  Total H  = 1.106251e+02
                                  Total O  = 6.379845e+01

----------------------------Distribution of species----------------------------

                                                    MacInnes  MacInnes
                                MacInnes       Log       Log       Log    mole V
   Species          Molality    Activity  Molality  Activity     Gamma   cm³/mol

   H+              2.017e-04   5.404e-05    -3.695    -4.267    -0.572      0.00
   OH-             7.030e-08   3.802e-08    -7.153    -7.420    -0.267      3.21
   H2O             5.551e+01   9.312e-01     1.744    -0.031     0.000     19.55
C(4)          2.439e-01
   CO2             2.316e-01   5.291e-01    -0.635    -0.276     0.359     43.58
   HCO3-           1.224e-02   1.895e-03    -1.912    -2.722    -0.810     29.32
   CO3-2           3.266e-08   1.627e-09    -7.486    -8.789    -1.303     -0.85
Na            4.015e+00
   Na+             4.015e+00   1.376e+00     0.604     0.139    -0.465      2.32
S(6)          2.007e+00
   SO4-2           1.995e+00   2.452e-02     0.300    -1.610    -1.910     21.89
   HSO4-           1.203e-02   3.650e-03    -1.920    -2.438    -0.518     44.51

------------------------------Saturation indices-------------------------------

  Phase               SI** log IAP   log K(418 K,  86 atm)

  Burkeite        -10.51    -11.18   -0.67  Na6CO3(SO4)2
  CO2(g)            1.84     -0.28   -2.12  CO2	 Pressure  80.2 atm, phi 0.865
  H2O(g)            0.59     -0.03   -0.62  H2O	 Pressure   5.6 atm, phi 0.693
  Mirabilite       -1.64     -1.64   -0.00  Na2SO4:10H2O
  Nahcolite        -2.21    -12.92  -10.70  NaHCO3
  Natron           -7.78     -8.82   -1.04  Na2CO3:10H2O
  Thenardite       -0.24     -1.33   -1.09  Na2SO4
  Trona           -10.17    -21.49  -11.32  Na3H(CO3)2:2H2O

**For a gas, SI = log10(fugacity). Fugacity = pressure * phi / 1 atm.
  For ideal gases, phi = 1.

Reaction step 10.

Using solution 1.	
Using pure phase assemblage 1.	
Using gas phase 1.	
Using temperature 1.	

-----------------------------------Gas phase-----------------------------------

Total pressure: 88.42      atmospheres          (Peng-Robinson calculation)
    Gas volume:   1.00e+00 liters
  Molar volume:   3.45e-01 liters/mole
   P * Vm / RT:  0.85891  (Compressibility Factor Z) 

                                                        Moles in gas
                                            ----------------------------------
Component         log P           P    phi     Initial       Final       Delta

CO2(g)             1.90   8.025e+01  0.880   0.000e+00   2.628e+00   2.628e+00
H2O(g)             0.91   8.173e+00  0.705   0.000e+00   2.677e-01   2.677e-01

-------------------------------Phase assemblage--------------------------------

                                                      Moles in assemblage
Phase               SI  log IAP  log K(T, P)   Initial       Final       Delta

CO2(g)            1.85    -0.28     -2.12    1.000e+01   7.128e+00  -2.872e+00

-----------------------------Solution composition------------------------------

	Elements           Molality       Moles

	C                 2.451e-01   2.439e-01
	Na                4.020e+00   4.000e+00
	S                 2.010e+00   2.000e+00

----------------------------Description of solution----------------------------

                                       pH  =   4.390      Charge balance
                                       pe  =   4.000      Adjusted to redox equilibrium
      Specific Conductance (µS/cm, 160°C)  = 653306
                          Density (g/cm³)  =   1.11128
                               Volume (L)  =   1.16082
                        Viscosity (mPa s)  =   0.35066
                        Activity of water  =   0.933
                 Ionic strength (mol/kgw)  =   6.018e+00
                       Mass of water (kg)  =   9.949e-01
                 Total alkalinity (eq/kg)  =   1.582e-13
                       Total CO2 (mol/kg)  =   2.451e-01
                         Temperature (°C)  = 160.00
                           Pressure (atm)  = 88.42
                  Electrical balance (eq)  =  -3.432e-10
 Percent error, 100*(Cat-|An|)/(Cat+|An|)  =  -0.00
                               Iterations  =  39
                         Gamma iterations  =   5
                      Osmotic coefficient  =   0.60917
                         Density of water  =   0.90745
                                  Total H  = 1.104770e+02
                                  Total O  = 6.372632e+01

----------------------------Distribution of species----------------------------

                                                    MacInnes  MacInnes
                                MacInnes       Log       Log       Log    mole V
   Species          Molality    Activity  Molality  Activity     Gamma   cm³/mol

   H+              1.706e-04   4.076e-05    -3.768    -4.390    -0.622      0.00
   OH-             1.286e-07   6.834e-08    -6.891    -7.165    -0.275      2.27
   H2O             5.551e+01   9.334e-01     1.744    -0.030     0.000     19.85
C(4)          2.451e-01
   CO2             2.319e-01   5.301e-01    -0.635    -0.276     0.359     45.90
   HCO3-           1.323e-02   1.907e-03    -1.878    -2.720    -0.841     28.81
   CO3-2           3.548e-08   1.737e-09    -7.450    -8.760    -1.310     -4.06
Na            4.020e+00
   Na+             4.020e+00   1.274e+00     0.604     0.105    -0.499      2.48
S(6)          2.010e+00
   SO4-2           1.997e+00   2.053e-02     0.300    -1.688    -1.988     21.62
   HSO4-           1.306e-02   3.738e-03    -1.884    -2.427    -0.543     44.66

------------------------------Saturation indices-------------------------------

  Phase               SI** log IAP   log K(433 K,  88 atm)

  Burkeite        -10.84    -11.50   -0.67  Na6CO3(SO4)2
  CO2(g)            1.85     -0.28   -2.12  CO2	 Pressure  80.2 atm, phi 0.880
  H2O(g)            0.76     -0.03   -0.79  H2O	 Pressure   8.2 atm, phi 0.705
  Mirabilite       -1.50     -1.78   -0.28  Na2SO4:10H2O
  Nahcolite        -2.35    -13.04  -10.70  NaHCO3
  Natron           -7.81     -8.85   -1.04  Na2CO3:10H2O
  Thenardite       -0.22     -1.48   -1.25  Na2SO4
  Trona           -10.34    -21.65  -11.31  Na3H(CO3)2:2H2O

**For a gas, SI = log10(fugacity). Fugacity = pressure * phi / 1 atm.
  For ideal gases, phi = 1.

------------------
End of simulation.
------------------

------------------------------------
Reading input data for simulation 3.
------------------------------------

