WARNING: Database file from DATABASE keyword is used; command line argument ignored.
   Input file: colt4
  Output file: colt4.out
Database file: ../database/Amm.dat

------------------
Reading data base.
------------------

	SOLUTION_MASTER_SPECIES
	SOLUTION_SPECIES
	PHASES
	GAS_BINARY_PARAMETERS
	EXCHANGE_MASTER_SPECIES
	EXCHANGE_SPECIES
	SURFACE_MASTER_SPECIES
	SURFACE_SPECIES
	MEAN_GAMMAS
	RATES
	END
------------------------------------
Reading input data for simulation 1.
------------------------------------

	DATABASE ../database/Amm.dat
	SELECTED_OUTPUT 101
	    file                 colt4_101.sel
	USER_PUNCH 101
	    headings Mu SC
	    start
	10 PUNCH STR_F$(MU, 20, 12)
	20 PUNCH STR_F$(SC, 20, 10)
	    end
	SOLUTION 1 Solution with calcite and FeS2
	        temp    20.
	        units   mmol/l
	        pH      7.0
	        pe      -4.483
	        Mg      5.78
	        Cl     11.56    charge
	        S       1.705e-3  
	        Fe      1.279e-2 
	        C(4)    2.372e-1
	        Ca      2.715e-1
	EQUILIBRIUM_PHASES 1
	        Pyrite   0.0	0.05
	        Goethite 3.0	0.02
	        Calcite -0.7	0.015
	SAVE equilibrium_phases 1
	SAVE solution 1
	END
-------------------------------------------
Beginning of initial solution calculations.
-------------------------------------------

Initial solution 1.	Solution with calcite and FeS2

-----------------------------Solution composition------------------------------

	Elements           Molality       Moles

	C(4)              2.373e-04   2.373e-04
	Ca                2.717e-04   2.717e-04
	Cl                1.194e-02   1.194e-02  Charge balance
	Fe                1.280e-05   1.280e-05
	Mg                5.783e-03   5.783e-03
	S                 1.706e-06   1.706e-06

----------------------------Description of solution----------------------------

                                       pH  =   7.000    
                                       pe  =  -4.483    
      Specific Conductance (µS/cm,  20°C)  = 1232
                          Density (g/cm³)  =   0.99870
                               Volume (L)  =   1.00189
                        Viscosity (mPa s)  =   1.00602
                        Activity of water  =   1.000
                 Ionic strength (mol/kgw)  =   1.819e-02
                       Mass of water (kg)  =   1.000e+00
                 Total alkalinity (eq/kg)  =   1.986e-04
                       Total CO2 (mol/kg)  =   2.373e-04
                         Temperature (°C)  =  20.00
                  Electrical balance (eq)  =  -5.132e-18
 Percent error, 100*(Cat-|An|)/(Cat+|An|)  =  -0.00
                               Iterations  =  10
                                  Total H  = 1.110126e+02
                                  Total O  = 5.550689e+01

----------------------------Distribution of species----------------------------

                                               Log       Log       Log    mole V
   Species          Molality    Activity  Molality  Activity     Gamma   cm³/mol

   H+              1.119e-07   1.000e-07    -6.951    -7.000    -0.049      0.00
   OH-             7.841e-08   6.843e-08    -7.106    -7.165    -0.059     -4.22
   H2O             5.551e+01   9.997e-01     1.744    -0.000     0.000     18.05
C(4)          2.373e-04
   HCO3-           1.891e-04   1.666e-04    -3.723    -3.778    -0.055     24.37
   CO2             4.005e-05   4.016e-05    -4.397    -4.396     0.001     34.56
   MgHCO3+         7.677e-06   6.718e-06    -5.115    -5.173    -0.058      5.40
   MgCO3           2.170e-07   2.179e-07    -6.664    -6.662     0.002    -17.08
   FeHCO3+         1.446e-07   1.267e-07    -6.840    -6.897    -0.057     (0)  
   CO3-2           1.165e-07   7.018e-08    -6.934    -7.154    -0.220     -4.70
   CaCO3           1.753e-08   1.760e-08    -7.756    -7.754     0.002    -14.62
   FeCO3           1.275e-08   1.280e-08    -7.895    -7.893     0.002     (0)  
   (CO2)2          2.006e-11   2.012e-11   -10.698   -10.696     0.001     68.28
   CaHCO3+         8.993e-13   7.943e-13   -12.046   -12.100    -0.054      9.54
Ca            2.717e-04
   Ca+2            2.716e-04   1.635e-04    -3.566    -3.786    -0.220    -17.91
   CaCO3           1.753e-08   1.760e-08    -7.756    -7.754     0.002    -14.62
   CaOH+           3.096e-10   2.713e-10    -9.509    -9.567    -0.057     (0)  
   CaHCO3+         8.993e-13   7.943e-13   -12.046   -12.100    -0.054      9.54
   CaSO4           8.187e-16   8.202e-16   -15.087   -15.086     0.001      6.66
   CaHSO4+         8.324e-22   7.295e-22   -21.080   -21.137    -0.057     (0)  
Cl            1.194e-02
   Cl-             1.194e-02   1.043e-02    -1.923    -1.982    -0.058     18.00
   FeCl+           1.250e-07   1.095e-07    -6.903    -6.961    -0.057     (0)  
   HCl             3.642e-10   3.707e-10    -9.439    -9.431     0.008     19.99
   FeCl+2          8.107e-24   4.846e-24   -23.091   -23.315    -0.223     (0)  
   FeCl2+          3.018e-25   2.654e-25   -24.520   -24.576    -0.056     (0)  
   FeCl3           2.757e-28   2.768e-28   -27.560   -27.558     0.002     (0)  
Fe(2)         1.280e-05
   Fe+2            1.249e-05   7.603e-06    -4.903    -5.119    -0.216    -22.18
   FeHCO3+         1.446e-07   1.267e-07    -6.840    -6.897    -0.057     (0)  
   FeCl+           1.250e-07   1.095e-07    -6.903    -6.961    -0.057     (0)  
   FeOH+           1.869e-08   1.644e-08    -7.728    -7.784    -0.056     (0)  
   FeCO3           1.275e-08   1.280e-08    -7.895    -7.893     0.002     (0)  
   Fe(HS)2         4.151e-09   4.168e-09    -8.382    -8.380     0.002     (0)  
   Fe(OH)2         8.949e-13   8.987e-13   -12.048   -12.046     0.002     (0)  
   Fe(HS)3-        4.062e-13   3.560e-13   -12.391   -12.449    -0.057     (0)  
   Fe(OH)3-        3.611e-16   3.175e-16   -15.442   -15.498    -0.056     (0)  
   FeSO4           5.210e-17   5.232e-17   -16.283   -16.281     0.002     29.91
   FeHSO4+         3.871e-23   3.392e-23   -22.412   -22.470    -0.057     (0)  
Fe(3)         5.126e-15
   Fe(OH)2+        2.679e-15   2.360e-15   -14.572   -14.627    -0.055     (0)  
   Fe(OH)3         2.425e-15   2.435e-15   -14.615   -14.613     0.002     (0)  
   Fe(OH)4-        2.054e-17   1.810e-17   -16.687   -16.742    -0.055     (0)  
   FeOH+2          1.446e-18   8.646e-19   -17.840   -18.063    -0.223     (0)  
   Fe+3            4.968e-23   1.807e-23   -22.304   -22.743    -0.439     (0)  
   FeCl+2          8.107e-24   4.846e-24   -23.091   -23.315    -0.223     (0)  
   FeCl2+          3.018e-25   2.654e-25   -24.520   -24.576    -0.056     (0)  
   FeCl3           2.757e-28   2.768e-28   -27.560   -27.558     0.002     (0)  
   FeSO4+          8.551e-33   7.519e-33   -32.068   -32.124    -0.056     (0)  
   Fe2(OH)2+4      2.053e-34   2.483e-35   -33.688   -34.605    -0.917     (0)  
   FeHSO4+2        3.434e-39   2.025e-39   -38.464   -38.694    -0.229     (0)  
   Fe(SO4)2-       0.000e+00   0.000e+00   -44.107   -44.164    -0.057     (0)  
   Fe3(OH)4+5      0.000e+00   0.000e+00   -45.275   -46.708    -1.434     (0)  
H(0)          1.371e-08
   H2              6.856e-09   6.886e-09    -8.164    -8.162     0.002     14.60
Mg            5.783e-03
   Mg+2            5.775e-03   3.514e-03    -2.238    -2.454    -0.216    -21.35
   MgHCO3+         7.677e-06   6.718e-06    -5.115    -5.173    -0.058      5.40
   MgCO3           2.170e-07   2.179e-07    -6.664    -6.662     0.002    -17.08
   MgOH+           9.103e-08   8.057e-08    -7.041    -7.094    -0.053     (0)  
   MgSO4           3.406e-14   3.434e-14   -13.468   -13.464     0.004     -0.86
   Mg(SO4)2-2      8.511e-27   5.278e-27   -26.070   -26.278    -0.208     37.43
O(0)          0.000e+00
   O2              0.000e+00   0.000e+00   -77.730   -77.728     0.002     29.98
S(-2)         1.706e-06
   HS-             8.986e-07   7.843e-07    -6.046    -6.106    -0.059     20.44
   H2S             7.991e-07   8.025e-07    -6.097    -6.096     0.002     34.96
   Fe(HS)2         4.151e-09   4.168e-09    -8.382    -8.380     0.002     (0)  
   S-2             1.119e-12   6.687e-13   -11.951   -12.175    -0.223     (0)  
   Fe(HS)3-        4.062e-13   3.560e-13   -12.391   -12.449    -0.057     (0)  
   (H2S)2          2.966e-14   2.978e-14   -13.528   -13.526     0.002     30.29
S(6)          1.061e-13
   SO4-2           7.116e-14   4.247e-14   -13.148   -13.372    -0.224     13.97
   MgSO4           3.406e-14   3.434e-14   -13.468   -13.464     0.004     -0.86
   CaSO4           8.187e-16   8.202e-16   -15.087   -15.086     0.001      6.66
   FeSO4           5.210e-17   5.232e-17   -16.283   -16.281     0.002     29.91
   HSO4-           4.234e-19   3.711e-19   -18.373   -18.431    -0.057     40.00
   CaHSO4+         8.324e-22   7.295e-22   -21.080   -21.137    -0.057     (0)  
   FeHSO4+         3.871e-23   3.392e-23   -22.412   -22.470    -0.057     (0)  
   Mg(SO4)2-2      8.511e-27   5.278e-27   -26.070   -26.278    -0.208     37.43
   FeSO4+          8.551e-33   7.519e-33   -32.068   -32.124    -0.056     (0)  
   FeHSO4+2        3.434e-39   2.025e-39   -38.464   -38.694    -0.229     (0)  
   Fe(SO4)2-       0.000e+00   0.000e+00   -44.107   -44.164    -0.057     (0)  

------------------------------Saturation indices-------------------------------

  Phase               SI** log IAP   log K(293 K,   1 atm)

  Anhydrite       -12.92    -17.16   -4.24  CaSO4
  Aragonite        -2.63    -10.94   -8.31  CaCO3
  Calcite          -2.53    -10.94   -8.41  CaCO3
  CO2(g)           -2.99     -4.40   -1.41  CO2
  Dolomite         -3.54    -20.55  -17.00  CaMg(CO3)2
  Epsomite        -14.06    -15.83   -1.77  MgSO4:7H2O
  Fe(OH)3(a)       -6.63     -1.74    4.89  Fe(OH)3
  FeS(ppt)         -0.31     -4.22   -3.92  FeS
  Goethite         -0.92     -1.74   -0.82  FeOOH
  Gypsum          -12.63    -17.16   -4.53  CaSO4:2H2O
  H2(g)            -5.07     -8.16   -3.09  H2
  H2O(g)           -1.63     -0.00    1.63  H2O
  H2S(g)           -5.16    -13.11   -7.95  H2S
  Hematite          0.14     -3.49   -3.62  Fe2O3
  Hexahydrite     -14.25    -15.83   -1.57  MgSO4:6H2O
  Kieserite       -14.63    -15.83   -1.20  MgSO4:H2O
  Mackinawite       0.42     -4.22   -4.65  FeS
  Melanterite     -16.22    -18.49   -2.27  FeSO4:7H2O
  O2(g)           -74.87    -77.73   -2.85  O2
  Pyrite            6.32    -12.30  -18.62  FeS2
  Siderite         -1.41    -12.27  -10.86  FeCO3
  Sulfur           -6.06     -1.06    5.00  S

**For a gas, SI = log10(fugacity). Fugacity = pressure * phi / 1 atm.
  For ideal gases, phi = 1.

-----------------------------------------
Beginning of batch-reaction calculations.
-----------------------------------------

Reaction step 1.

Using solution 1.	Solution with calcite and FeS2
Using pure phase assemblage 1.	

-------------------------------Phase assemblage--------------------------------

                                                      Moles in assemblage
Phase               SI  log IAP  log K(T, P)   Initial       Final       Delta

Calcite          -0.70    -9.11     -8.41    1.500e-02   1.494e-02  -6.382e-05
Goethite          3.00     2.18     -0.82    2.000e-02   2.000e-02  -1.188e-06
Pyrite            0.00   -18.62    -18.62    5.000e-02   5.000e-02   8.525e-07

-----------------------------Solution composition------------------------------

	Elements           Molality       Moles

	C                 3.012e-04   3.012e-04
	Ca                3.355e-04   3.355e-04
	Cl                1.194e-02   1.194e-02
	Fe                1.313e-05   1.313e-05
	Mg                5.783e-03   5.783e-03
	S                 1.030e-09   1.030e-09

----------------------------Description of solution----------------------------

                                       pH  =   8.588      Charge balance
                                       pe  =  -5.286      Adjusted to redox equilibrium
      Specific Conductance (µS/cm,  20°C)  = 1239
                          Density (g/cm³)  =   0.99871
                               Volume (L)  =   1.00189
                        Viscosity (mPa s)  =   1.00605
                        Activity of water  =   1.000
                 Ionic strength (mol/kgw)  =   1.833e-02
                       Mass of water (kg)  =   1.000e+00
                 Total alkalinity (eq/kg)  =   3.269e-04
                       Total CO2 (mol/kg)  =   3.011e-04
                         Temperature (°C)  =  20.00
                  Electrical balance (eq)  =   8.238e-18
 Percent error, 100*(Cat-|An|)/(Cat+|An|)  =   0.00
                               Iterations  =  13
                                  Total H  = 1.110126e+02
                                  Total O  = 5.550708e+01

----------------------------Distribution of species----------------------------

                                               Log       Log       Log    mole V
   Species          Molality    Activity  Molality  Activity     Gamma   cm³/mol

   OH-             3.035e-06   2.648e-06    -5.518    -5.577    -0.059     -4.22
   H+              2.892e-09   2.584e-09    -8.539    -8.588    -0.049      0.00
   H2O             5.551e+01   9.997e-01     1.744    -0.000     0.000     18.05
C(-4)         6.725e-08
   CH4             6.725e-08   6.754e-08    -7.172    -7.170     0.002     35.01
C(4)          3.011e-04
   HCO3-           2.685e-04   2.365e-04    -3.571    -3.626    -0.055     24.37
   MgCO3           1.186e-05   1.191e-05    -4.926    -4.924     0.002    -17.08
   MgHCO3+         1.085e-05   9.489e-06    -4.965    -5.023    -0.058      5.40
   CO3-2           6.410e-06   3.854e-06    -5.193    -5.414    -0.221     -4.69
   CO2             1.469e-06   1.473e-06    -5.833    -5.832     0.001     34.56
   CaCO3           1.183e-06   1.188e-06    -5.927    -5.925     0.002    -14.62
   FeCO3           6.443e-07   6.471e-07    -6.191    -6.189     0.002     (0)  
   FeHCO3+         1.890e-07   1.655e-07    -6.724    -6.781    -0.058     (0)  
   CaHCO3+         1.569e-12   1.385e-12   -11.804   -11.859    -0.054      9.54
   (CO2)2          2.699e-14   2.706e-14   -13.569   -13.568     0.001     68.28
Ca            3.355e-04
   Ca+2            3.343e-04   2.009e-04    -3.476    -3.697    -0.221    -17.91
   CaCO3           1.183e-06   1.188e-06    -5.927    -5.925     0.002    -14.62
   CaOH+           1.472e-08   1.290e-08    -7.832    -7.889    -0.058     (0)  
   CaSO4           8.723e-12   8.740e-12   -11.059   -11.059     0.001      6.66
   CaHCO3+         1.569e-12   1.385e-12   -11.804   -11.859    -0.054      9.54
   CaHSO4+         2.293e-19   2.009e-19   -18.640   -18.697    -0.058     (0)  
Cl            1.194e-02
   Cl-             1.194e-02   1.043e-02    -1.923    -1.982    -0.059     18.00
   FeCl+           1.150e-07   1.007e-07    -6.939    -6.997    -0.058     (0)  
   HCl             9.406e-12   9.576e-12   -11.027   -11.019     0.008     19.99
   FeCl+2          1.177e-24   7.022e-25   -23.929   -24.154    -0.224     (0)  
   FeCl2+          4.373e-26   3.843e-26   -25.359   -25.415    -0.056     (0)  
   FeCl3           3.991e-29   4.008e-29   -28.399   -28.397     0.002     (0)  
Fe(2)         1.313e-05
   Fe+2            1.152e-05   6.999e-06    -4.939    -5.155    -0.216    -22.18
   FeOH+           6.662e-07   5.855e-07    -6.176    -6.232    -0.056     (0)  
   FeCO3           6.443e-07   6.471e-07    -6.191    -6.189     0.002     (0)  
   FeHCO3+         1.890e-07   1.655e-07    -6.724    -6.781    -0.058     (0)  
   FeCl+           1.150e-07   1.007e-07    -6.939    -6.997    -0.058     (0)  
   Fe(OH)2         1.234e-09   1.239e-09    -8.909    -8.907     0.002     (0)  
   Fe(OH)3-        1.927e-11   1.694e-11   -10.715   -10.771    -0.056     (0)  
   FeSO4           4.159e-13   4.177e-13   -12.381   -12.379     0.002     29.91
   Fe(HS)2         5.297e-17   5.319e-17   -16.276   -16.274     0.002     (0)  
   FeHSO4+         7.989e-21   6.998e-21   -20.098   -20.155    -0.058     (0)  
   Fe(HS)3-        6.106e-25   5.349e-25   -24.214   -24.272    -0.058     (0)  
Fe(3)         2.763e-11
   Fe(OH)3         2.037e-11   2.046e-11   -10.691   -10.689     0.002     (0)  
   Fe(OH)4-        6.681e-12   5.883e-12   -11.175   -11.230    -0.055     (0)  
   Fe(OH)2+        5.818e-13   5.124e-13   -12.235   -12.290    -0.055     (0)  
   FeOH+2          8.128e-18   4.851e-18   -17.090   -17.314    -0.224     (0)  
   Fe+3            7.222e-24   2.620e-24   -23.141   -23.582    -0.440     (0)  
   FeCl+2          1.177e-24   7.022e-25   -23.929   -24.154    -0.224     (0)  
   FeCl2+          4.373e-26   3.843e-26   -25.359   -25.415    -0.056     (0)  
   FeCl3           3.991e-29   4.008e-29   -28.399   -28.397     0.002     (0)  
   FeSO4+          1.076e-29   9.454e-30   -28.968   -29.024    -0.056     (0)  
   Fe2(OH)2+4      6.506e-33   7.813e-34   -32.187   -33.107    -0.920     (0)  
   FeHSO4+2        1.118e-37   6.580e-38   -36.952   -37.182    -0.230     (0)  
   Fe(SO4)2-       8.526e-38   7.468e-38   -37.069   -37.127    -0.058     (0)  
   Fe3(OH)4+5      0.000e+00   0.000e+00   -41.436   -42.874    -1.438     (0)  
H(0)          3.692e-10
   H2              1.846e-10   1.854e-10    -9.734    -9.732     0.002     14.60
Mg            5.783e-03
   Mg+2            5.757e-03   3.497e-03    -2.240    -2.456    -0.217    -21.34
   MgCO3           1.186e-05   1.191e-05    -4.926    -4.924     0.002    -17.08
   MgHCO3+         1.085e-05   9.489e-06    -4.965    -5.023    -0.058      5.40
   MgOH+           3.507e-06   3.103e-06    -5.455    -5.508    -0.053     (0)  
   MgSO4           2.940e-10   2.965e-10    -9.532    -9.528     0.004     -0.86
   Mg(SO4)2-2      6.381e-19   3.951e-19   -18.195   -18.403    -0.208     37.45
O(0)          0.000e+00
   O2              0.000e+00   0.000e+00   -74.590   -74.588     0.002     29.98
S(-2)         1.083e-10
   HS-             1.058e-10   9.234e-11    -9.975   -10.035    -0.059     20.44
   H2S             2.431e-12   2.442e-12   -11.614   -11.612     0.002     34.96
   S-2             5.105e-15   3.047e-15   -14.292   -14.516    -0.224     (0)  
   Fe(HS)2         5.297e-17   5.319e-17   -16.276   -16.274     0.002     (0)  
   Fe(HS)3-        6.106e-25   5.349e-25   -24.214   -24.272    -0.058     (0)  
   (H2S)2          2.746e-25   2.757e-25   -24.561   -24.559     0.002     30.29
S(6)          9.213e-10
   SO4-2           6.182e-10   3.683e-10    -9.209    -9.434    -0.225     13.97
   MgSO4           2.940e-10   2.965e-10    -9.532    -9.528     0.004     -0.86
   CaSO4           8.723e-12   8.740e-12   -11.059   -11.059     0.001      6.66
   FeSO4           4.159e-13   4.177e-13   -12.381   -12.379     0.002     29.91
   HSO4-           9.494e-17   8.316e-17   -16.023   -16.080    -0.058     40.00
   Mg(SO4)2-2      6.381e-19   3.951e-19   -18.195   -18.403    -0.208     37.45
   CaHSO4+         2.293e-19   2.009e-19   -18.640   -18.697    -0.058     (0)  
   FeHSO4+         7.989e-21   6.998e-21   -20.098   -20.155    -0.058     (0)  
   FeSO4+          1.076e-29   9.454e-30   -28.968   -29.024    -0.056     (0)  
   FeHSO4+2        1.118e-37   6.580e-38   -36.952   -37.182    -0.230     (0)  
   Fe(SO4)2-       8.526e-38   7.468e-38   -37.069   -37.127    -0.058     (0)  

------------------------------Saturation indices-------------------------------

  Phase               SI** log IAP   log K(293 K,   1 atm)

  Anhydrite        -8.90    -13.13   -4.24  CaSO4
  Aragonite        -0.81     -9.11   -8.31  CaCO3
  Calcite          -0.70     -9.11   -8.41  CaCO3
  CH4(g)           -4.42     -7.17   -2.75  CH4
  CO2(g)           -4.42     -5.83   -1.41  CO2
  Dolomite          0.02    -16.98  -17.00  CaMg(CO3)2
  Epsomite        -10.12    -11.89   -1.77  MgSO4:7H2O
  Fe(OH)3(a)       -2.71      2.18    4.89  Fe(OH)3
  FeS(ppt)         -2.69     -6.60   -3.92  FeS
  Goethite          3.00      2.18   -0.82  FeOOH
  Gypsum           -8.60    -13.13   -4.53  CaSO4:2H2O
  H2(g)            -6.64     -9.73   -3.09  H2
  H2O(g)           -1.63     -0.00    1.63  H2O
  H2S(g)          -10.68    -18.62   -7.95  H2S
  Hematite          7.98      4.36   -3.62  Fe2O3
  Hexahydrite     -10.32    -11.89   -1.57  MgSO4:6H2O
  Kieserite       -10.69    -11.89   -1.20  MgSO4:H2O
  Mackinawite      -1.95     -6.60   -4.65  FeS
  Melanterite     -12.32    -14.59   -2.27  FeSO4:7H2O
  O2(g)           -71.73    -74.59   -2.85  O2
  Pyrite            0.00    -18.62  -18.62  FeS2
  Siderite          0.29    -10.57  -10.86  FeCO3
  Sulfur          -10.01     -5.01    5.00  S

**For a gas, SI = log10(fugacity). Fugacity = pressure * phi / 1 atm.
  For ideal gases, phi = 1.

------------------
End of simulation.
------------------

------------------------------------
Reading input data for simulation 2.
------------------------------------

	EXCHANGE_MASTER_SPECIES
	        Z      Z
	EXCHANGE_SPECIES
	        Z = Z
	        log_k   0.0
	        SO4-2  +  2H+ +  Z  = H2SO4Z
	        log_k           8.2
	        OH-  +  H+ +  Z  = H2OZ
	        log_k           4.0
	        Cl-  +  H+ +  Z  = HClZ
	        log_k           1.0
	EXCHANGE 1
	  equilibrate with solution 1
	        X    0.1
	        Z    Goethite 0.1
	END
-------------------------------------------------------
Beginning of initial exchange-composition calculations.
-------------------------------------------------------

Exchange 1.	

X                1.000e-01 mol

	                               Equiv-    Equivalent      Log 
	Species             Moles      alents      Fraction     Gamma

	MgX2              4.572e-02   9.144e-02   9.144e-01    -0.217
	CaX2              4.213e-03   8.426e-03   8.426e-02    -0.221
	FeX2              6.658e-05   1.332e-04   1.332e-03    -0.216
Z                2.000e-03 mol	[0.1 (mol Z)/(mol Goethite)]

	                               Equiv-    Equivalent      Log 
	Species             Moles      alents      Fraction     Gamma

	HClZ              1.595e-03   1.595e-03   7.975e-01     0.000
	H2OZ              4.050e-04   4.050e-04   2.025e-01     0.000
	H2SO4Z            2.307e-12   2.307e-12   1.154e-09     0.000

------------------
End of simulation.
------------------

------------------------------------
Reading input data for simulation 3.
------------------------------------

	USE solution 1
	USE exchange 1
	USE equilibrium_phases 1
	REACTION 1              # O2 is added to oxidize pyrite
	        O2  1.0
	        0.02     0.05   0.1 moles
	END
-----------------------------------------
Beginning of batch-reaction calculations.
-----------------------------------------

Reaction step 1.

Using solution 1.	Solution after simulation 1.
Using exchange 1.	Exchange assemblage after simulation 2.
Using pure phase assemblage 1.	Pure-phase assemblage after simulation 1.
Using reaction 1.	

Reaction 1.	

	  2.000e-02 moles of the following reaction have been added:

	                 Relative
	Reactant            moles

	O2                   1.00000

	                 Relative
	Element             moles
	O                    2.00000

-------------------------------Phase assemblage--------------------------------

                                                      Moles in assemblage
Phase               SI  log IAP  log K(T, P)   Initial       Final       Delta

Calcite          -0.70    -9.11     -8.41    1.494e-02   8.964e-03  -5.972e-03
Goethite          3.00     2.18     -0.82    2.000e-02   1.827e-02  -1.732e-03
Pyrite            0.00   -18.62    -18.62    5.000e-02   4.416e-02  -5.838e-03

-----------------------------Exchange composition------------------------------

X                1.000e-01 mol

	                               Equiv-    Equivalent      Log 
	Species             Moles      alents      Fraction     Gamma

	MgX2              3.660e-02   7.321e-02   7.321e-01    -0.314
	CaX2              8.620e-03   1.724e-02   1.724e-01    -0.325
	FeX2              4.776e-03   9.552e-03   9.552e-02    -0.316
Z                1.827e-03 mol	[0.1 (mol Z)/(mol Goethite)]

	                               Equiv-    Equivalent      Log 
	Species             Moles      alents      Fraction     Gamma

	HClZ              1.073e-03   1.073e-03   5.875e-01    -0.000
	H2SO4Z            7.487e-04   7.487e-04   4.099e-01    -0.000
	H2OZ              4.853e-06   4.853e-06   2.657e-03    -0.000

-----------------------------Solution composition------------------------------

	Elements           Molality       Moles

	C                 6.273e-03   6.273e-03
	Ca                1.900e-03   1.900e-03
	Cl                1.246e-02   1.246e-02
	Fe                2.874e-03   2.873e-03
	Mg                1.490e-02   1.490e-02
	S                 1.093e-02   1.093e-02

----------------------------Description of solution----------------------------

                                       pH  =   6.826      Charge balance
                                       pe  =  -2.133      Adjusted to redox equilibrium
      Specific Conductance (µS/cm,  20°C)  = 2812
                          Density (g/cm³)  =   1.00047
                               Volume (L)  =   1.00195
                        Viscosity (mPa s)  =   1.01385
                        Activity of water  =   0.999
                 Ionic strength (mol/kgw)  =   5.096e-02
                       Mass of water (kg)  =   1.000e+00
                 Total alkalinity (eq/kg)  =   5.034e-03
                       Total CO2 (mol/kg)  =   6.273e-03
                         Temperature (°C)  =  20.00
                  Electrical balance (eq)  =  -6.939e-18
 Percent error, 100*(Cat-|An|)/(Cat+|An|)  =  -0.00
                               Iterations  =  11
                                  Total H  = 1.110142e+02
                                  Total O  = 5.556587e+01

----------------------------Distribution of species----------------------------

                                               Log       Log       Log    mole V
   Species          Molality    Activity  Molality  Activity     Gamma   cm³/mol

   H+              1.748e-07   1.493e-07    -6.758    -6.826    -0.069      0.00
   OH-             5.647e-08   4.583e-08    -7.248    -7.339    -0.091     -4.10
   H2O             5.551e+01   9.992e-01     1.744    -0.000     0.000     18.05
C(-4)         4.319e-16
   CH4             4.319e-16   4.370e-16   -15.365   -15.360     0.005     35.01
C(4)          6.273e-03
   HCO3-           4.293e-03   3.561e-03    -2.367    -2.448    -0.081     24.63
   CO2             1.272e-03   1.281e-03    -2.896    -2.892     0.003     34.56
   FeHCO3+         4.116e-04   3.381e-04    -3.385    -3.471    -0.085     (0)  
   MgHCO3+         2.663e-04   2.174e-04    -3.575    -3.663    -0.088      5.45
   FeCO3           2.262e-05   2.289e-05    -4.646    -4.640     0.005     (0)  
   MgCO3           4.669e-06   4.725e-06    -5.331    -5.326     0.005    -17.08
   CO3-2           2.130e-06   1.005e-06    -5.672    -5.998    -0.326     -4.25
   CaCO3           1.174e-06   1.188e-06    -5.930    -5.925     0.005    -14.62
   (CO2)2          2.033e-08   2.049e-08    -7.692    -7.689     0.003     68.28
   CaHCO3+         9.598e-11   8.000e-11   -10.018   -10.097    -0.079      9.58
Ca            1.900e-03
   Ca+2            1.629e-03   7.706e-04    -2.788    -3.113    -0.325    -17.70
   CaSO4           2.706e-04   2.720e-04    -3.568    -3.565     0.002      6.66
   CaCO3           1.174e-06   1.188e-06    -5.930    -5.925     0.005    -14.62
   CaOH+           1.042e-09   8.562e-10    -8.982    -9.067    -0.085     (0)  
   CaHSO4+         4.396e-10   3.611e-10    -9.357    -9.442    -0.085     (0)  
   CaHCO3+         9.598e-11   8.000e-11   -10.018   -10.097    -0.079      9.58
Cl            1.246e-02
   Cl-             1.244e-02   1.013e-02    -1.905    -1.994    -0.089     18.08
   FeCl+           1.617e-05   1.328e-05    -4.791    -4.877    -0.085     (0)  
   HCl             5.113e-10   5.375e-10    -9.291    -9.270     0.022     19.99
   FeCl+2          2.836e-19   1.316e-19   -18.547   -18.881    -0.333     (0)  
   FeCl2+          8.480e-21   7.000e-21   -20.072   -20.155    -0.083     (0)  
   FeCl3           7.011e-24   7.094e-24   -23.154   -23.149     0.005     (0)  
Fe(2)         2.874e-03
   Fe+2            1.967e-03   9.495e-04    -2.706    -3.022    -0.316    -21.98
   FeSO4           4.545e-04   4.598e-04    -3.342    -3.337     0.005     29.91
   FeHCO3+         4.116e-04   3.381e-04    -3.385    -3.471    -0.085     (0)  
   FeCO3           2.262e-05   2.289e-05    -4.646    -4.640     0.005     (0)  
   FeCl+           1.617e-05   1.328e-05    -4.791    -4.877    -0.085     (0)  
   FeOH+           1.666e-06   1.375e-06    -5.778    -5.862    -0.083     (0)  
   FeHSO4+         5.417e-10   4.449e-10    -9.266    -9.352    -0.085     (0)  
   Fe(OH)2         4.975e-11   5.033e-11   -10.303   -10.298     0.005     (0)  
   Fe(OH)3-        1.443e-14   1.191e-14   -13.841   -13.924    -0.083     (0)  
   Fe(HS)2         8.680e-20   8.782e-20   -19.062   -19.056     0.005     (0)  
   Fe(HS)3-        3.750e-30   3.081e-30   -29.426   -29.511    -0.085     (0)  
Fe(3)         5.608e-11
   Fe(OH)2+        3.571e-11   2.959e-11   -10.447   -10.529    -0.082     (0)  
   Fe(OH)3         2.021e-11   2.045e-11   -10.694   -10.689     0.005     (0)  
   Fe(OH)4-        1.228e-13   1.018e-13   -12.911   -12.992    -0.082     (0)  
   FeOH+2          3.488e-14   1.619e-14   -13.457   -13.791    -0.333     (0)  
   FeSO4+          1.792e-17   1.479e-17   -16.747   -16.830    -0.083     (0)  
   Fe+3            2.091e-18   5.053e-19   -17.680   -18.296    -0.617     (0)  
   Fe(SO4)2-       1.154e-18   9.483e-19   -17.938   -18.023    -0.085     (0)  
   FeCl+2          2.836e-19   1.316e-19   -18.547   -18.881    -0.333     (0)  
   FeCl2+          8.480e-21   7.000e-21   -20.072   -20.155    -0.083     (0)  
   FeHSO4+2        1.306e-23   5.947e-24   -22.884   -23.226    -0.342     (0)  
   FeCl3           7.011e-24   7.094e-24   -23.154   -23.149     0.005     (0)  
   Fe2(OH)2+4      2.024e-25   8.704e-27   -24.694   -26.060    -1.367     (0)  
   Fe3(OH)4+5      1.175e-32   8.603e-35   -31.930   -34.065    -2.135     (0)  
H(0)          6.047e-13
   H2              3.023e-13   3.061e-13   -12.519   -12.514     0.005     14.60
Mg            1.490e-02
   Mg+2            1.097e-02   5.321e-03    -1.960    -2.274    -0.314    -21.14
   MgSO4           3.575e-03   3.660e-03    -2.447    -2.436     0.010     -0.86
   MgHCO3+         2.663e-04   2.174e-04    -3.575    -3.663    -0.088      5.45
   Mg(SO4)2-2      7.870e-05   3.958e-05    -4.104    -4.402    -0.298     39.66
   MgCO3           4.669e-06   4.725e-06    -5.331    -5.326     0.005    -17.08
   MgOH+           9.759e-08   8.171e-08    -7.011    -7.088    -0.077     (0)  
O(0)          0.000e+00
   O2              0.000e+00   0.000e+00   -69.029   -69.024     0.005     29.98
S(-2)         8.832e-13
   H2S             4.862e-13   4.920e-13   -12.313   -12.308     0.005     34.96
   HS-             3.969e-13   3.221e-13   -12.401   -12.492    -0.091     20.52
   S-2             3.965e-19   1.840e-19   -18.402   -18.735    -0.333     (0)  
   Fe(HS)2         8.680e-20   8.782e-20   -19.062   -19.056     0.005     (0)  
   (H2S)2          1.106e-26   1.119e-26   -25.956   -25.951     0.005     30.29
   Fe(HS)3-        3.750e-30   3.081e-30   -29.426   -29.511    -0.085     (0)  
S(6)          1.093e-02
   SO4-2           6.470e-03   2.989e-03    -2.189    -2.525    -0.335     14.16
   MgSO4           3.575e-03   3.660e-03    -2.447    -2.436     0.010     -0.86
   FeSO4           4.545e-04   4.598e-04    -3.342    -3.337     0.005     29.91
   CaSO4           2.706e-04   2.720e-04    -3.568    -3.565     0.002      6.66
   Mg(SO4)2-2      7.870e-05   3.958e-05    -4.104    -4.402    -0.298     39.66
   HSO4-           4.745e-08   3.898e-08    -7.324    -7.409    -0.085     40.08
   FeHSO4+         5.417e-10   4.449e-10    -9.266    -9.352    -0.085     (0)  
   CaHSO4+         4.396e-10   3.611e-10    -9.357    -9.442    -0.085     (0)  
   FeSO4+          1.792e-17   1.479e-17   -16.747   -16.830    -0.083     (0)  
   Fe(SO4)2-       1.154e-18   9.483e-19   -17.938   -18.023    -0.085     (0)  
   FeHSO4+2        1.306e-23   5.947e-24   -22.884   -23.226    -0.342     (0)  

------------------------------Saturation indices-------------------------------

  Phase               SI** log IAP   log K(293 K,   1 atm)

  Anhydrite        -1.40     -5.64   -4.24  CaSO4
  Aragonite        -0.81     -9.11   -8.31  CaCO3
  Calcite          -0.70     -9.11   -8.41  CaCO3
  CH4(g)          -12.61    -15.36   -2.75  CH4
  CO2(g)           -1.49     -2.89   -1.41  CO2
  Dolomite         -0.38    -17.38  -17.00  CaMg(CO3)2
  Epsomite         -3.03     -4.80   -1.77  MgSO4:7H2O
  Fe(OH)3(a)       -2.71      2.18    4.89  Fe(OH)3
  FeS(ppt)         -4.77     -8.69   -3.92  FeS
  Goethite          3.00      2.18   -0.82  FeOOH
  Gypsum           -1.11     -5.64   -4.53  CaSO4:2H2O
  H2(g)            -9.43    -12.51   -3.09  H2
  H2O(g)           -1.63     -0.00    1.63  H2O
  H2S(g)          -11.37    -19.32   -7.95  H2S
  Hematite          7.98      4.36   -3.62  Fe2O3
  Hexahydrite      -3.23     -4.80   -1.57  MgSO4:6H2O
  Kieserite        -3.60     -4.80   -1.20  MgSO4:H2O
  Mackinawite      -4.04     -8.69   -4.65  FeS
  Melanterite      -3.28     -5.55   -2.27  FeSO4:7H2O
  O2(g)           -66.17    -69.02   -2.85  O2
  Pyrite            0.00    -18.62  -18.62  FeS2
  Siderite          1.84     -9.02  -10.86  FeCO3
  Sulfur           -7.92     -2.92    5.00  S

**For a gas, SI = log10(fugacity). Fugacity = pressure * phi / 1 atm.
  For ideal gases, phi = 1.

Reaction step 2.

Using solution 1.	Solution after simulation 1.
Using exchange 1.	Exchange assemblage after simulation 2.
Using pure phase assemblage 1.	Pure-phase assemblage after simulation 1.
Using reaction 1.	

Reaction 1.	

	  5.000e-02 moles of the following reaction have been added:

	                 Relative
	Reactant            moles

	O2                   1.00000

	                 Relative
	Element             moles
	O                    2.00000

-------------------------------Phase assemblage--------------------------------

                                                      Moles in assemblage
Phase               SI  log IAP  log K(T, P)   Initial       Final       Delta

Calcite          -0.70    -9.11     -8.41    1.494e-02   4.671e-03  -1.027e-02
Goethite          3.00     2.18     -0.82    2.000e-02   1.209e-02  -7.907e-03
Pyrite            0.00   -18.62    -18.62    5.000e-02   3.515e-02  -1.485e-02

-----------------------------Exchange composition------------------------------

X                1.000e-01 mol

	                               Equiv-    Equivalent      Log 
	Species             Moles      alents      Fraction     Gamma

	MgX2              2.860e-02   5.720e-02   5.720e-01    -0.379
	FeX2              1.082e-02   2.164e-02   2.164e-01    -0.385
	CaX2              1.058e-02   2.115e-02   2.115e-01    -0.396
Z                1.209e-03 mol	[0.1 (mol Z)/(mol Goethite)]

	                               Equiv-    Equivalent      Log 
	Species             Moles      alents      Fraction     Gamma

	H2SO4Z            9.025e-04   9.025e-04   7.464e-01     0.000
	HClZ              3.060e-04   3.060e-04   2.530e-01     0.000
	H2OZ              6.679e-07   6.679e-07   5.524e-04     0.000

-----------------------------Solution composition------------------------------

	Elements           Molality       Moles

	C                 1.057e-02   1.057e-02
	Ca                4.237e-03   4.237e-03
	Cl                1.323e-02   1.323e-02
	Fe                1.201e-02   1.202e-02
	Mg                2.290e-02   2.290e-02
	S                 2.880e-02   2.880e-02

----------------------------Description of solution----------------------------

                                       pH  =   6.512      Charge balance
                                       pe  =  -1.694      Adjusted to redox equilibrium
      Specific Conductance (µS/cm,  20°C)  = 4711
                          Density (g/cm³)  =   1.00311
                               Volume (L)  =   1.00211
                        Viscosity (mPa s)  =   1.02119
                        Activity of water  =   0.999
                 Ionic strength (mol/kgw)  =   9.261e-02
                       Mass of water (kg)  =   1.000e+00
                 Total alkalinity (eq/kg)  =   7.487e-03
                       Total CO2 (mol/kg)  =   1.057e-02
                         Temperature (°C)  =  20.00
                  Electrical balance (eq)  =   5.551e-17
 Percent error, 100*(Cat-|An|)/(Cat+|An|)  =   0.00
                               Iterations  =  34
                                  Total H  = 1.110208e+02
                                  Total O  = 5.565049e+01

----------------------------Distribution of species----------------------------

                                               Log       Log       Log    mole V
   Species          Molality    Activity  Molality  Activity     Gamma   cm³/mol

   H+              3.704e-07   3.073e-07    -6.431    -6.512    -0.081      0.00
   OH-             2.893e-08   2.224e-08    -7.539    -7.653    -0.114     -3.98
   H2O             5.551e+01   9.987e-01     1.744    -0.001     0.000     18.05
C(-4)         1.045e-16
   CH4             1.045e-16   1.067e-16   -15.981   -15.972     0.009     35.01
C(4)          1.057e-02
   HCO3-           5.379e-03   4.279e-03    -2.269    -2.369    -0.099     24.91
   CO2             3.128e-03   3.172e-03    -2.505    -2.499     0.006     34.56
   FeHCO3+         1.640e-03   1.291e-03    -2.785    -2.889    -0.104     (0)  
   MgHCO3+         3.723e-04   2.890e-04    -3.429    -3.539    -0.110      5.49
   FeCO3           4.154e-05   4.243e-05    -4.382    -4.372     0.009     (0)  
   MgCO3           2.986e-06   3.050e-06    -5.525    -5.516     0.009    -17.08
   CO3-2           1.473e-06   5.864e-07    -5.832    -6.232    -0.400     -3.86
   CaCO3           1.162e-06   1.188e-06    -5.935    -5.925     0.009    -14.62
   (CO2)2          1.238e-07   1.256e-07    -6.907    -6.901     0.006     68.28
   CaHCO3+         2.056e-10   1.647e-10    -9.687    -9.783    -0.096      9.62
Ca            4.237e-03
   Ca+2            3.283e-03   1.320e-03    -2.484    -2.879    -0.396    -17.55
   CaSO4           9.534e-04   9.625e-04    -3.021    -3.017     0.004      6.66
   CaCO3           1.162e-06   1.188e-06    -5.935    -5.925     0.009    -14.62
   CaHSO4+         3.342e-09   2.631e-09    -8.476    -8.580    -0.104     (0)  
   CaOH+           9.047e-10   7.121e-10    -9.044    -9.147    -0.104     (0)  
   CaHCO3+         2.056e-10   1.647e-10    -9.687    -9.783    -0.096      9.62
Cl            1.323e-02
   Cl-             1.317e-02   1.019e-02    -1.880    -1.992    -0.111     18.15
   FeCl+           5.392e-05   4.244e-05    -4.268    -4.372    -0.104     (0)  
   HCl             1.016e-09   1.113e-09    -8.993    -8.954     0.039     19.99
   FeCl+2          2.979e-18   1.157e-18   -17.526   -17.937    -0.411     (0)  
   FeCl2+          7.837e-20   6.186e-20   -19.106   -19.209    -0.103     (0)  
   FeCl3           6.172e-23   6.305e-23   -22.210   -22.200     0.009     (0)  
Fe(2)         1.201e-02
   Fe+2            7.324e-03   3.017e-03    -2.135    -2.520    -0.385    -21.83
   FeSO4           2.953e-03   3.017e-03    -2.530    -2.520     0.009     29.91
   FeHCO3+         1.640e-03   1.291e-03    -2.785    -2.889    -0.104     (0)  
   FeCl+           5.392e-05   4.244e-05    -4.268    -4.372    -0.104     (0)  
   FeCO3           4.154e-05   4.243e-05    -4.382    -4.372     0.009     (0)  
   FeOH+           2.686e-06   2.120e-06    -5.571    -5.674    -0.103     (0)  
   FeHSO4+         7.636e-09   6.010e-09    -8.117    -8.221    -0.104     (0)  
   Fe(OH)2         3.688e-11   3.768e-11   -10.433   -10.424     0.009     (0)  
   Fe(OH)3-        5.481e-15   4.327e-15   -14.261   -14.364    -0.103     (0)  
   Fe(HS)2         4.817e-20   4.920e-20   -19.317   -19.308     0.009     (0)  
   Fe(HS)3-        9.208e-31   7.248e-31   -30.036   -30.140    -0.104     (0)  
Fe(3)         9.696e-11
   Fe(OH)2+        7.672e-11   6.093e-11   -10.115   -10.215    -0.100     (0)  
   Fe(OH)3         2.001e-11   2.044e-11   -10.699   -10.690     0.009     (0)  
   FeOH+2          1.769e-13   6.868e-14   -12.752   -13.163    -0.411     (0)  
   Fe(OH)4-        6.216e-14   4.937e-14   -13.206   -13.307    -0.100     (0)  
   FeSO4+          3.382e-16   2.670e-16   -15.471   -15.574    -0.103     (0)  
   Fe(SO4)2-       4.489e-17   3.534e-17   -16.348   -16.452    -0.104     (0)  
   Fe+3            2.371e-17   4.416e-18   -16.625   -17.355    -0.730     (0)  
   FeCl+2          2.979e-18   1.157e-18   -17.526   -17.937    -0.411     (0)  
   FeCl2+          7.837e-20   6.186e-20   -19.106   -19.209    -0.103     (0)  
   FeHSO4+2        5.757e-22   2.210e-22   -21.240   -21.656    -0.416     (0)  
   FeCl3           6.172e-23   6.305e-23   -22.210   -22.200     0.009     (0)  
   Fe2(OH)2+4      7.213e-24   1.566e-25   -23.142   -24.805    -1.663     (0)  
   Fe3(OH)4+5      1.266e-30   3.188e-33   -29.898   -32.496    -2.599     (0)  
H(0)          3.354e-13
   H2              1.677e-13   1.715e-13   -12.775   -12.766     0.010     14.60
Mg            2.290e-02
   Mg+2            1.409e-02   5.886e-03    -1.851    -2.230    -0.379    -21.00
   MgSO4           8.012e-03   8.361e-03    -2.096    -2.078     0.019     -0.86
   Mg(SO4)2-2      4.259e-04   1.867e-04    -3.371    -3.729    -0.358     41.08
   MgHCO3+         3.723e-04   2.890e-04    -3.429    -3.539    -0.110      5.49
   MgCO3           2.986e-06   3.050e-06    -5.525    -5.516     0.009    -17.08
   MgOH+           5.440e-08   4.388e-08    -7.264    -7.358    -0.093     (0)  
O(0)          0.000e+00
   O2              0.000e+00   0.000e+00   -68.531   -68.522     0.009     29.98
S(-2)         5.924e-13
   H2S             4.164e-13   4.254e-13   -12.380   -12.371     0.009     34.96
   HS-             1.759e-13   1.353e-13   -12.755   -12.869    -0.114     20.59
   S-2             9.664e-20   3.753e-20   -19.015   -19.426    -0.411     (0)  
   Fe(HS)2         4.817e-20   4.920e-20   -19.317   -19.308     0.009     (0)  
   (H2S)2          8.193e-27   8.370e-27   -26.087   -26.077     0.009     30.29
   Fe(HS)3-        9.208e-31   7.248e-31   -30.036   -30.140    -0.104     (0)  
S(6)          2.880e-02
   SO4-2           1.603e-02   6.171e-03    -1.795    -2.210    -0.415     14.35
   MgSO4           8.012e-03   8.361e-03    -2.096    -2.078     0.019     -0.86
   FeSO4           2.953e-03   3.017e-03    -2.530    -2.520     0.009     29.91
   CaSO4           9.534e-04   9.625e-04    -3.021    -3.017     0.004      6.66
   Mg(SO4)2-2      4.259e-04   1.867e-04    -3.371    -3.729    -0.358     41.08
   HSO4-           2.105e-07   1.657e-07    -6.677    -6.781    -0.104     40.15
   FeHSO4+         7.636e-09   6.010e-09    -8.117    -8.221    -0.104     (0)  
   CaHSO4+         3.342e-09   2.631e-09    -8.476    -8.580    -0.104     (0)  
   FeSO4+          3.382e-16   2.670e-16   -15.471   -15.574    -0.103     (0)  
   Fe(SO4)2-       4.489e-17   3.534e-17   -16.348   -16.452    -0.104     (0)  
   FeHSO4+2        5.757e-22   2.210e-22   -21.240   -21.656    -0.416     (0)  

------------------------------Saturation indices-------------------------------

  Phase               SI** log IAP   log K(293 K,   1 atm)

  Anhydrite        -0.85     -5.09   -4.24  CaSO4
  Aragonite        -0.81     -9.11   -8.31  CaCO3
  Calcite          -0.70     -9.11   -8.41  CaCO3
  CH4(g)          -13.22    -15.97   -2.75  CH4
  CO2(g)           -1.09     -2.50   -1.41  CO2
  Dolomite         -0.57    -17.57  -17.00  CaMg(CO3)2
  Epsomite         -2.67     -4.44   -1.77  MgSO4:7H2O
  Fe(OH)3(a)       -2.71      2.18    4.89  Fe(OH)3
  FeS(ppt)         -4.96     -8.88   -3.92  FeS
  Goethite          3.00      2.18   -0.82  FeOOH
  Gypsum           -0.56     -5.09   -4.53  CaSO4:2H2O
  H2(g)            -9.68    -12.77   -3.09  H2
  H2O(g)           -1.63     -0.00    1.63  H2O
  H2S(g)          -11.43    -19.38   -7.95  H2S
  Hematite          7.99      4.36   -3.62  Fe2O3
  Hexahydrite      -2.87     -4.44   -1.57  MgSO4:6H2O
  Kieserite        -3.24     -4.44   -1.20  MgSO4:H2O
  Mackinawite      -4.23     -8.88   -4.65  FeS
  Melanterite      -2.46     -4.73   -2.27  FeSO4:7H2O
  O2(g)           -65.67    -68.52   -2.85  O2
  Pyrite            0.00    -18.62  -18.62  FeS2
  Siderite          2.11     -8.75  -10.86  FeCO3
  Sulfur           -7.73     -2.73    5.00  S

**For a gas, SI = log10(fugacity). Fugacity = pressure * phi / 1 atm.
  For ideal gases, phi = 1.

Reaction step 3.

Using solution 1.	Solution after simulation 1.
Using exchange 1.	Exchange assemblage after simulation 2.
Using pure phase assemblage 1.	Pure-phase assemblage after simulation 1.
Using reaction 1.	

Reaction 1.	

	  1.000e-01 moles of the following reaction have been added:

	                 Relative
	Reactant            moles

	O2                   1.00000

	                 Relative
	Element             moles
	O                    2.00000

-------------------------------Phase assemblage--------------------------------

                                                      Moles in assemblage
Phase               SI  log IAP  log K(T, P)   Initial       Final       Delta

Calcite          -0.98    -9.39     -8.41    1.494e-02           0  -1.494e-02
Goethite          2.67     1.85     -0.82    2.000e-02           0  -2.000e-02
Pyrite            0.00   -18.62    -18.62    5.000e-02   2.000e-02  -3.000e-02

-----------------------------Exchange composition------------------------------

X                1.000e-01 mol

	                               Equiv-    Equivalent      Log 
	Species             Moles      alents      Fraction     Gamma

	MgX2              2.088e-02   4.176e-02   4.176e-01    -0.437
	FeX2              1.756e-02   3.512e-02   3.512e-01    -0.451
	CaX2              1.156e-02   2.312e-02   2.312e-01    -0.461
Z                6.830e-18 mol	[0.1 (mol Z)/(mol Goethite)]

	                               Equiv-    Equivalent      Log 
	Species             Moles      alents      Fraction     Gamma


-----------------------------Solution composition------------------------------

	Elements           Molality       Moles

	C                 1.524e-02   1.524e-02
	Ca                7.923e-03   7.924e-03
	Cl                1.353e-02   1.353e-02
	Fe                3.251e-02   3.252e-02
	Mg                3.062e-02   3.063e-02
	S                 5.999e-02   6.000e-02

----------------------------Description of solution----------------------------

                                       pH  =   6.124      Charge balance
                                       pe  =  -1.194      Adjusted to redox equilibrium
      Specific Conductance (µS/cm,  20°C)  = 7527
                          Density (g/cm³)  =   1.00752
                               Volume (L)  =   1.00253
                        Viscosity (mPa s)  =   1.03047
                        Activity of water  =   0.998
                 Ionic strength (mol/kgw)  =   1.578e-01
                       Mass of water (kg)  =   1.000e+00
                 Total alkalinity (eq/kg)  =   8.601e-03
                       Total CO2 (mol/kg)  =   1.524e-02
                         Temperature (°C)  =  20.00
                  Electrical balance (eq)  =  -3.202e-13
 Percent error, 100*(Cat-|An|)/(Cat+|An|)  =  -0.00
                               Iterations  =  37
                                  Total H  = 1.110350e+02
                                  Total O  = 5.579229e+01

----------------------------Distribution of species----------------------------

                                               Log       Log       Log    mole V
   Species          Molality    Activity  Molality  Activity     Gamma   cm³/mol

   H+              9.304e-07   7.519e-07    -6.031    -6.124    -0.093      0.00
   OH-             1.248e-08   9.085e-09    -7.904    -8.042    -0.138     -3.83
   H2O             5.551e+01   9.978e-01     1.744    -0.001     0.000     18.05
C(-4)         2.870e-17
   CH4             2.870e-17   2.976e-17   -16.542   -16.526     0.016     35.01
C(4)          1.524e-02
   CO2             6.668e-03   6.830e-03    -2.176    -2.166     0.010     34.56
   HCO3-           4.922e-03   3.762e-03    -2.308    -2.425    -0.117     25.28
   FeHCO3+         3.265e-03   2.477e-03    -2.486    -2.606    -0.120     (0)  
   MgHCO3+         3.447e-04   2.543e-04    -3.463    -3.595    -0.132      5.53
   FeCO3           3.210e-05   3.329e-05    -4.494    -4.478     0.016     (0)  
   MgCO3           1.058e-06   1.097e-06    -5.976    -5.960     0.016    -17.08
   CO3-2           6.246e-07   2.107e-07    -6.204    -6.676    -0.472     -3.38
   CaCO3           6.062e-07   6.286e-07    -6.217    -6.202     0.016    -14.62
   (CO2)2          5.682e-07   5.820e-07    -6.246    -6.235     0.010     68.28
   CaHCO3+         2.766e-10   2.133e-10    -9.558    -9.671    -0.113      9.65
Ca            7.923e-03
   Ca+2            5.619e-03   1.945e-03    -2.250    -2.711    -0.461    -17.39
   CaSO4           2.304e-03   2.341e-03    -2.638    -2.631     0.007      6.66
   CaCO3           6.062e-07   6.286e-07    -6.217    -6.202     0.016    -14.62
   CaHSO4+         2.063e-08   1.566e-08    -7.685    -7.805    -0.120     (0)  
   CaOH+           5.645e-10   4.284e-10    -9.248    -9.368    -0.120     (0)  
   CaHCO3+         2.766e-10   2.133e-10    -9.558    -9.671    -0.113      9.65
Cl            1.353e-02
   Cl-             1.341e-02   9.857e-03    -1.873    -2.006    -0.134     18.23
   FeCl+           1.181e-04   8.960e-05    -3.928    -4.048    -0.120     (0)  
   HCl             2.256e-09   2.634e-09    -8.647    -8.579     0.067     19.99
   FeCl+2          2.367e-17   7.715e-18   -16.626   -17.113    -0.487     (0)  
   FeCl2+          5.282e-19   3.991e-19   -18.277   -18.399    -0.122     (0)  
   FeCl3           3.794e-22   3.934e-22   -21.421   -21.405     0.016     (0)  
Fe(2)         3.251e-02
   Fe+2            1.861e-02   6.585e-03    -1.730    -2.181    -0.451    -21.68
   FeSO4           1.049e-02   1.087e-02    -1.979    -1.964     0.016     29.91
   FeHCO3+         3.265e-03   2.477e-03    -2.486    -2.606    -0.120     (0)  
   FeCl+           1.181e-04   8.960e-05    -3.928    -4.048    -0.120     (0)  
   FeCO3           3.210e-05   3.329e-05    -4.494    -4.478     0.016     (0)  
   FeOH+           2.501e-06   1.890e-06    -5.602    -5.724    -0.122     (0)  
   FeHSO4+         6.984e-08   5.300e-08    -7.156    -7.276    -0.120     (0)  
   Fe(OH)2         1.323e-11   1.372e-11   -10.879   -10.863     0.016     (0)  
   Fe(OH)3-        8.514e-16   6.433e-16   -15.070   -15.192    -0.122     (0)  
   Fe(HS)2         2.845e-20   2.951e-20   -19.546   -19.530     0.016     (0)  
   Fe(HS)3-        3.002e-31   2.278e-31   -30.523   -30.642    -0.120     (0)  
Fe(3)         1.018e-10
   Fe(OH)2+        9.196e-11   7.009e-11   -10.036   -10.154    -0.118     (0)  
   Fe(OH)3         9.257e-12   9.600e-12   -11.034   -11.018     0.016     (0)  
   FeOH+2          5.933e-13   1.934e-13   -12.227   -12.714    -0.487     (0)  
   Fe(OH)4-        1.243e-14   9.471e-15   -13.906   -14.024    -0.118     (0)  
   FeSO4+          4.024e-15   3.040e-15   -14.395   -14.517    -0.122     (0)  
   Fe(SO4)2-       8.756e-16   6.645e-16   -15.058   -15.178    -0.120     (0)  
   Fe+3            2.071e-16   3.045e-17   -15.684   -16.516    -0.833     (0)  
   FeCl+2          2.367e-17   7.715e-18   -16.626   -17.113    -0.487     (0)  
   FeCl2+          5.282e-19   3.991e-19   -18.277   -18.399    -0.122     (0)  
   FeHSO4+2        1.857e-20   6.157e-21   -19.731   -20.211    -0.479     (0)  
   FeCl3           3.794e-22   3.934e-22   -21.421   -21.405     0.016     (0)  
   Fe2(OH)2+4      1.027e-22   1.242e-24   -21.988   -23.906    -1.917     (0)  
   Fe3(OH)4+5      2.882e-29   2.908e-32   -28.540   -31.536    -2.996     (0)  
H(0)          1.980e-13
   H2              9.899e-14   1.028e-13   -13.004   -12.988     0.017     14.60
Mg            3.062e-02
   Mg+2            1.611e-02   5.892e-03    -1.793    -2.230    -0.437    -20.85
   MgSO4           1.285e-02   1.382e-02    -1.891    -1.860     0.032     -0.86
   Mg(SO4)2-2      1.319e-03   5.096e-04    -2.880    -3.293    -0.413     42.42
   MgHCO3+         3.447e-04   2.543e-04    -3.463    -3.595    -0.132      5.53
   MgCO3           1.058e-06   1.097e-06    -5.976    -5.960     0.016    -17.08
   MgOH+           2.304e-08   1.794e-08    -7.637    -7.746    -0.109     (0)  
O(0)          0.000e+00
   O2              0.000e+00   0.000e+00   -68.094   -68.078     0.016     29.98
S(-2)         6.235e-13
   H2S             5.260e-13   5.455e-13   -12.279   -12.263     0.016     34.96
   HS-             9.743e-14   7.090e-14   -13.011   -13.149    -0.138     20.68
   Fe(HS)2         2.845e-20   2.951e-20   -19.546   -19.530     0.016     (0)  
   S-2             2.466e-20   8.040e-21   -19.608   -20.095    -0.487     (0)  
   (H2S)2          1.327e-26   1.376e-26   -25.877   -25.861     0.016     30.29
   Fe(HS)3-        3.002e-31   2.278e-31   -30.523   -30.642    -0.120     (0)  
S(6)          5.999e-02
   SO4-2           3.171e-02   1.019e-02    -1.499    -1.992    -0.493     14.61
   MgSO4           1.285e-02   1.382e-02    -1.891    -1.860     0.032     -0.86
   FeSO4           1.049e-02   1.087e-02    -1.979    -1.964     0.016     29.91
   CaSO4           2.304e-03   2.341e-03    -2.638    -2.631     0.007      6.66
   Mg(SO4)2-2      1.319e-03   5.096e-04    -2.880    -3.293    -0.413     42.42
   HSO4-           8.822e-07   6.695e-07    -6.054    -6.174    -0.120     40.23
   FeHSO4+         6.984e-08   5.300e-08    -7.156    -7.276    -0.120     (0)  
   CaHSO4+         2.063e-08   1.566e-08    -7.685    -7.805    -0.120     (0)  
   FeSO4+          4.024e-15   3.040e-15   -14.395   -14.517    -0.122     (0)  
   Fe(SO4)2-       8.756e-16   6.645e-16   -15.058   -15.178    -0.120     (0)  
   FeHSO4+2        1.857e-20   6.157e-21   -19.731   -20.211    -0.479     (0)  

------------------------------Saturation indices-------------------------------

  Phase               SI** log IAP   log K(293 K,   1 atm)

  Anhydrite        -0.47     -4.70   -4.24  CaSO4
  Aragonite        -1.08     -9.39   -8.31  CaCO3
  Calcite          -0.98     -9.39   -8.41  CaCO3
  CH4(g)          -13.77    -16.53   -2.75  CH4
  CO2(g)           -0.76     -2.17   -1.41  CO2
  Dolomite         -1.29    -18.29  -17.00  CaMg(CO3)2
  Epsomite         -2.46     -4.23   -1.77  MgSO4:7H2O
  Fe(OH)3(a)       -3.04      1.85    4.89  Fe(OH)3
  FeS(ppt)         -5.29     -9.21   -3.92  FeS
  Goethite          2.67      1.85   -0.82  FeOOH
  Gypsum           -0.17     -4.70   -4.53  CaSO4:2H2O
  H2(g)            -9.90    -12.99   -3.09  H2
  H2O(g)           -1.63     -0.00    1.63  H2O
  H2S(g)          -11.33    -19.27   -7.95  H2S
  Hematite          7.33      3.71   -3.62  Fe2O3
  Hexahydrite      -2.65     -4.23   -1.57  MgSO4:6H2O
  Kieserite        -3.03     -4.22   -1.20  MgSO4:H2O
  Mackinawite      -4.56     -9.21   -4.65  FeS
  Melanterite      -1.91     -4.18   -2.27  FeSO4:7H2O
  O2(g)           -65.22    -68.08   -2.85  O2
  Pyrite            0.00    -18.62  -18.62  FeS2
  Siderite          2.00     -8.86  -10.86  FeCO3
  Sulfur           -7.40     -2.40    5.00  S

**For a gas, SI = log10(fugacity). Fugacity = pressure * phi / 1 atm.
  For ideal gases, phi = 1.

------------------
End of simulation.
------------------

------------------------------------
Reading input data for simulation 4.
------------------------------------

