WARNING: Database file from DATABASE keyword is used; command line argument ignored.
   Input file: colt5
  Output file: colt5.out
Database file: ../database/Amm.dat

------------------
Reading data base.
------------------

	SOLUTION_MASTER_SPECIES
	SOLUTION_SPECIES
	PHASES
	GAS_BINARY_PARAMETERS
	EXCHANGE_MASTER_SPECIES
	EXCHANGE_SPECIES
	SURFACE_MASTER_SPECIES
	SURFACE_SPECIES
	MEAN_GAMMAS
	RATES
	END
------------------------------------
Reading input data for simulation 1.
------------------------------------

	DATABASE ../database/Amm.dat
	SELECTED_OUTPUT 101
	    file                 colt5_101.sel
	USER_PUNCH 101
	    headings Mu SC
	    start
	10 PUNCH STR_F$(MU, 20, 12)
	20 PUNCH STR_F$(SC, 20, 10)
	    end
	RATES
	Calcite
	   start
	1 rem	parm(1) = A/V, 1/dm	parm(2) = exponent for m/m0
	10 si_cc = si("Calcite")
	20 if (m <= 0  and si_cc < 0) then goto 200
	30  k1 = 10^(0.198 - 444.0 / (273.16 + tc) )
	40  k2 = 10^(2.84 - 2177.0 / (273.16 + tc) )
	50  if tc <= 25 then k3 = 10^(-5.86 - 317.0 / (273.16 + tc) )
	60  if tc > 25 then k3 = 10^(-1.1 - 1737.0 / (273.16 + tc) )
	70   t = 1
	80   if m0 > 0 then t = m/m0
	90   if t = 0 then t = 1
	100   moles = parm(1) * 0.1 * (t)^parm(2)
	110   moles = moles * (k1 * act("H+") + k2 * act("CO2") + k3 * act("H2O"))
	120   moles = moles * (1 - 10^(2/3*si_cc))
	130   moles = moles * time
	140  if (moles > m) then moles = m
	150 if (moles >= 0) then goto 200
	160  temp = tot("Ca")
	170  mc  = tot("C(4)")
	180  if mc < temp then temp = mc
	190  if -moles > temp then moles = -temp
	200save moles
	   end
	Pyrite
	   start
	1 rem	parm(1) = log10(A/V, 1/dm)	parm(2) = exp for (m/m0)
	2 rem	parm(3) = exp for O2		parm(4) = exp for H+
	10 if (m <= 0) then goto 200
	20 if (si("Pyrite") >= 0) then goto 200
	20  rate = -10.19 + parm(1) + parm(3)*lm("O2") + parm(4)*lm("H+") + parm(2)*log10(m/m0)
	30  moles = 10^rate * time
	40 if (moles > m) then moles = m
	50 if (moles >= (mol("O2")/3.5)) then moles = mol("O2")/3.5
	200save moles
	   end
	C
	   start
	10 if (m <= 0) then goto 200
	20  mO2 = mol("O2")
	30  mNO3 = tot("N(5)")
	40  mSO4 = tot("S(6)")
	50   rate = 7.93e-10*mO2/(2.e-5 + mO2) + 1.59e-11*mNO3/(2.e-5 + mNO3)
	60   rate = rate + 1.e-12*mSO4/(2.e-5 + mSO4)
	70  moles = rate * 6 * m * (m/m0)^2 * time
	80 if (moles > m) then moles = m
	200save moles
	   end
	SOLUTION 1-2  # distilled water, equilibrated with P_CO2 = 10^-2
	        temp 25.0
	        pH  7.0  charge
	        pe  16.09
	        C(4)  3.528e-1
	END
-------------------------------------------
Beginning of initial solution calculations.
-------------------------------------------

Initial solution 1.	

-----------------------------Solution composition------------------------------

	Elements           Molality       Moles

	C(4)              3.528e-04   3.528e-04

----------------------------Description of solution----------------------------

                                       pH  =   4.910      Charge balance
                                       pe  =  16.090    
      Specific Conductance (µS/cm,  25°C)  = 4
                          Density (g/cm³)  =   0.99706
                               Volume (L)  =   1.00324
                        Viscosity (mPa s)  =   0.89006
                        Activity of water  =   1.000
                 Ionic strength (mol/kgw)  =   1.236e-05
                       Mass of water (kg)  =   1.000e+00
                 Total alkalinity (eq/kg)  =  -1.612e-19
                       Total CO2 (mol/kg)  =   3.528e-04
                         Temperature (°C)  =  25.00
                  Electrical balance (eq)  =   1.612e-19
 Percent error, 100*(Cat-|An|)/(Cat+|An|)  =   0.00
                               Iterations  =  17
                                  Total H  = 1.110125e+02
                                  Total O  = 5.552423e+01

----------------------------Distribution of species----------------------------

                                               Log       Log       Log    mole V
   Species          Molality    Activity  Molality  Activity     Gamma   cm³/mol

   H+              1.236e-05   1.230e-05    -4.908    -4.910    -0.002      0.00
   OH-             8.258e-10   8.224e-10    -9.083    -9.085    -0.002     -4.14
   H2O             5.551e+01   9.998e-01     1.744    -0.000     0.000     18.07
C(4)          3.528e-04
   CO2             3.404e-04   3.404e-04    -3.468    -3.468     0.000     34.79
   HCO3-           1.235e-05   1.230e-05    -4.908    -4.910    -0.002     24.52
   (CO2)2          1.884e-09   1.884e-09    -8.725    -8.725     0.000     68.75
   CO3-2           4.767e-11   4.689e-11   -10.322   -10.329    -0.007     -4.80
H(0)          0.000e+00
   H2              0.000e+00   0.000e+00   -45.150   -45.150     0.000     14.99
O(0)          1.730e-02
   O2              8.650e-03   8.650e-03    -2.063    -2.063     0.000     30.40

------------------------------Saturation indices-------------------------------

  Phase               SI** log IAP   log K(298 K,   1 atm)

  CO2(g)           -2.00     -3.47   -1.47  CO2
  H2(g)           -42.05    -45.15   -3.10  H2
  H2O(g)           -1.50     -0.00    1.50  H2O
  O2(g)             0.83     -2.06   -2.89  O2

**For a gas, SI = log10(fugacity). Fugacity = pressure * phi / 1 atm.
  For ideal gases, phi = 1.

------------------
End of simulation.
------------------

------------------------------------
Reading input data for simulation 2.
------------------------------------

	knobs
	PRINT
	SELECTED_OUTPUT
	        file colt5.prn
	        totals Ca C(4) S(6)
		si   calcite pyrite
	KINETICS 1
	Pyrite  
		tol    1e-6
		m0 	5.e-4
		m	5.e-4
		parms -5.0 	0.1 	.5 	-0.11 
	Calcite 
		tol    1e-6
		m0 	3.e-3
		m	3.e-3
		parms	50  	0.6
	C
		tol	1e-6
		m0	5e-3
		m	5e-3
	KINETICS 2
	Pyrite  
		tol    1e-8
		m0 	5.e-4
		m	5.e-4
		parms -6.0 	0.1 	.5 	-0.11 
	Calcite 
		tol    1e-8
		m0 	3.e-3
		m	3.e-3
		parms	50  	0.6
	C
		tol	1e-8
		m0	5e-2
		m	5e-2
		parms  3.17e-10  1.e-11  0.5
	TRANSPORT
	        cells  2
	        shifts 5  0
	        bcond   2  2
	        diffc  1.0e-20
	        timest 3600
		print_frequency 5
	END
WARNING: No cell-lengths were read; length = 1 m assumed.
WARNING: No dispersivities were read; disp = 0 assumed.
------------------------------------
Beginning of transport calculations.
------------------------------------

-------------------------------
Equilibrating initial solutions
-------------------------------

Using solution 1.	
Using kinetics 1.	

Kinetics 1.	

	Time:      0 seconds
	Time step: 3600 seconds

	Rate name       Delta Moles Total Moles   Reactant        Coefficient

	Pyrite            0.000e+00   5.000e-04   Pyrite                    1
	Calcite           0.000e+00   3.000e-03   Calcite                   1
	C                 0.000e+00   5.000e-03   C                         1

-----------------------------Solution composition------------------------------

	Elements           Molality       Moles

	C                 3.528e-04   3.528e-04

----------------------------Description of solution----------------------------

                                       pH  =   4.910      Charge balance
                                       pe  =  16.090      Adjusted to redox equilibrium
      Specific Conductance (µS/cm,  25°C)  = 4
                          Density (g/cm³)  =   0.99706
                               Volume (L)  =   1.00324
                        Viscosity (mPa s)  =   0.89006
                        Activity of water  =   1.000
                 Ionic strength (mol/kgw)  =   1.236e-05
                       Mass of water (kg)  =   1.000e+00
                 Total alkalinity (eq/kg)  =  -1.612e-19
                       Total CO2 (mol/kg)  =   3.528e-04
                         Temperature (°C)  =  25.00
                  Electrical balance (eq)  =   1.612e-19
 Percent error, 100*(Cat-|An|)/(Cat+|An|)  =   0.00
                               Iterations  =   0
                                  Total H  = 1.110125e+02
                                  Total O  = 5.552423e+01

----------------------------Distribution of species----------------------------

                                               Log       Log       Log    mole V
   Species          Molality    Activity  Molality  Activity     Gamma   cm³/mol

   H+              1.236e-05   1.230e-05    -4.908    -4.910    -0.002      0.00
   OH-             8.258e-10   8.224e-10    -9.083    -9.085    -0.002     -4.14
   H2O             5.551e+01   9.998e-01     1.744    -0.000     0.000     18.07
C(-4)         0.000e+00
   CH4             0.000e+00   0.000e+00  -147.077  -147.077     0.000     35.46
C(4)          3.528e-04
   CO2             3.404e-04   3.404e-04    -3.468    -3.468     0.000     34.79
   HCO3-           1.235e-05   1.230e-05    -4.908    -4.910    -0.002     24.52
   (CO2)2          1.884e-09   1.884e-09    -8.725    -8.725     0.000     68.75
   CO3-2           4.767e-11   4.689e-11   -10.322   -10.329    -0.007     -4.80
H(0)          0.000e+00
   H2              0.000e+00   0.000e+00   -45.150   -45.150     0.000     14.99
O(0)          1.730e-02
   O2              8.650e-03   8.650e-03    -2.063    -2.063     0.000     30.40

------------------------------Saturation indices-------------------------------

  Phase               SI** log IAP   log K(298 K,   1 atm)

  CH4(g)         -144.28   -147.08   -2.80  CH4
  CO2(g)           -2.00     -3.47   -1.47  CO2
  H2(g)           -42.05    -45.15   -3.10  H2
  H2O(g)           -1.50     -0.00    1.50  H2O
  O2(g)             0.83     -2.06   -2.89  O2

**For a gas, SI = log10(fugacity). Fugacity = pressure * phi / 1 atm.
  For ideal gases, phi = 1.

Using solution 2.	
Using kinetics 2.	

Kinetics 2.	

	Time:      0 seconds
	Time step: 3600 seconds

	Rate name       Delta Moles Total Moles   Reactant        Coefficient

	Pyrite            0.000e+00   5.000e-04   Pyrite                    1
	Calcite           0.000e+00   3.000e-03   Calcite                   1
	C                 0.000e+00   5.000e-02   C                         1

-----------------------------Solution composition------------------------------

	Elements           Molality       Moles

	C                 3.528e-04   3.528e-04

----------------------------Description of solution----------------------------

                                       pH  =   4.910      Charge balance
                                       pe  =  16.090      Adjusted to redox equilibrium
      Specific Conductance (µS/cm,  25°C)  = 4
                          Density (g/cm³)  =   0.99706
                               Volume (L)  =   1.00324
                        Viscosity (mPa s)  =   0.89006
                        Activity of water  =   1.000
                 Ionic strength (mol/kgw)  =   1.236e-05
                       Mass of water (kg)  =   1.000e+00
                 Total alkalinity (eq/kg)  =  -1.612e-19
                       Total CO2 (mol/kg)  =   3.528e-04
                         Temperature (°C)  =  25.00
                  Electrical balance (eq)  =   1.612e-19
 Percent error, 100*(Cat-|An|)/(Cat+|An|)  =   0.00
                               Iterations  =   0
                                  Total H  = 1.110125e+02
                                  Total O  = 5.552423e+01

----------------------------Distribution of species----------------------------

                                               Log       Log       Log    mole V
   Species          Molality    Activity  Molality  Activity     Gamma   cm³/mol

   H+              1.236e-05   1.230e-05    -4.908    -4.910    -0.002      0.00
   OH-             8.258e-10   8.224e-10    -9.083    -9.085    -0.002     -4.14
   H2O             5.551e+01   9.998e-01     1.744    -0.000     0.000     18.07
C(-4)         0.000e+00
   CH4             0.000e+00   0.000e+00  -147.077  -147.077     0.000     35.46
C(4)          3.528e-04
   CO2             3.404e-04   3.404e-04    -3.468    -3.468     0.000     34.79
   HCO3-           1.235e-05   1.230e-05    -4.908    -4.910    -0.002     24.52
   (CO2)2          1.884e-09   1.884e-09    -8.725    -8.725     0.000     68.75
   CO3-2           4.767e-11   4.689e-11   -10.322   -10.329    -0.007     -4.80
H(0)          0.000e+00
   H2              0.000e+00   0.000e+00   -45.150   -45.150     0.000     14.99
O(0)          1.730e-02
   O2              8.650e-03   8.650e-03    -2.063    -2.063     0.000     30.40

------------------------------Saturation indices-------------------------------

  Phase               SI** log IAP   log K(298 K,   1 atm)

  CH4(g)         -144.28   -147.08   -2.80  CH4
  CO2(g)           -2.00     -3.47   -1.47  CO2
  H2(g)           -42.05    -45.15   -3.10  H2
  H2O(g)           -1.50     -0.00    1.50  H2O
  O2(g)             0.83     -2.06   -2.89  O2

**For a gas, SI = log10(fugacity). Fugacity = pressure * phi / 1 atm.
  For ideal gases, phi = 1.


Calculating transport: 2 (mobile) cells, 5 shifts, 1 mixruns...

Transport step   1. Mixrun   1.

Transport step   2. Mixrun   1.

Transport step   3. Mixrun   1.

Transport step   4. Mixrun   1.

Transport step   5. Mixrun   1.

Using mix 1.	
Using kinetics 1.	

Mixture 1.	

	  0.000e+00 Solution 0	                                                       
	  1.000e+00 Solution 1	Solution after simulation 2.                           
	  3.600e-17 Solution 2	Solution after simulation 2.                           

Kinetics 1.	

	Time:      18000 seconds
	Time step: 3600 seconds

	Rate name       Delta Moles Total Moles   Reactant        Coefficient

	Pyrite           -1.879e-12   5.000e-04   Pyrite                    1
	Calcite           1.322e-06   2.630e-03   Calcite                   1
	C                -8.543e-08   5.000e-03   C                         1

-----------------------------Solution composition------------------------------

	Elements           Molality       Moles

	C                 7.236e-04   7.236e-04
	Ca                3.703e-04   3.703e-04
	Fe                9.286e-12   9.286e-12
	S                 1.857e-11   1.857e-11

----------------------------Description of solution----------------------------

                                       pH  =   8.528      Charge balance
                                       pe  =  12.472      Adjusted to redox equilibrium
      Specific Conductance (µS/cm,  25°C)  = 73
                          Density (g/cm³)  =   0.99711
                               Volume (L)  =   1.00323
                        Viscosity (mPa s)  =   0.89070
                        Activity of water  =   1.000
                 Ionic strength (mol/kgw)  =   1.106e-03
                       Mass of water (kg)  =   1.000e+00
                 Total alkalinity (eq/kg)  =   7.407e-04
                       Total CO2 (mol/kg)  =   7.236e-04
                         Temperature (°C)  =  25.00
                  Electrical balance (eq)  =  -1.679e-11
 Percent error, 100*(Cat-|An|)/(Cat+|An|)  =  -0.00
                               Iterations  = 207 (201 overall)
                                  Total H  = 1.110125e+02
                                  Total O  = 5.552535e+01

----------------------------Distribution of species----------------------------

                                               Log       Log       Log    mole V
   Species          Molality    Activity  Molality  Activity     Gamma   cm³/mol

   OH-             3.546e-06   3.415e-06    -5.450    -5.467    -0.016     -4.11
   H+              3.070e-09   2.963e-09    -8.513    -8.528    -0.015      0.00
   H2O             5.551e+01   9.998e-01     1.744    -0.000     0.000     18.07
C(-4)         0.000e+00
   CH4             0.000e+00   0.000e+00  -148.956  -148.956     0.000     35.46
C(4)          7.236e-04
   HCO3-           7.010e-04   6.756e-04    -3.154    -3.170    -0.016     24.56
   CO3-2           1.239e-05   1.069e-05    -4.907    -4.971    -0.064     -4.67
   CaCO3           5.650e-06   5.651e-06    -5.248    -5.248     0.000    -14.60
   CO2             4.501e-06   4.502e-06    -5.347    -5.347     0.000     34.79
   CaHCO3+         1.933e-11   1.863e-11   -10.714   -10.730    -0.016      9.67
   (CO2)2          3.294e-13   3.295e-13   -12.482   -12.482     0.000     68.75
   FeCO3           5.923e-25   5.924e-25   -24.227   -24.227     0.000     (0)  
   FeHCO3+         1.620e-25   1.560e-25   -24.791   -24.807    -0.016     (0)  
Ca            3.703e-04
   Ca+2            3.647e-04   3.146e-04    -3.438    -3.502    -0.064    -18.14
   CaCO3           5.650e-06   5.651e-06    -5.248    -5.248     0.000    -14.60
   CaOH+           1.829e-08   1.762e-08    -7.738    -7.754    -0.016     (0)  
   CaHCO3+         1.933e-11   1.863e-11   -10.714   -10.730    -0.016      9.67
   CaSO4           6.770e-13   6.770e-13   -12.169   -12.169     0.000      7.22
   CaHSO4+         1.745e-20   1.681e-20   -19.758   -19.774    -0.016     (0)  
Fe(2)         3.685e-24
   Fe+2            2.674e-24   2.309e-24   -23.573   -23.637    -0.064    -22.13
   FeCO3           5.923e-25   5.924e-25   -24.227   -24.227     0.000     (0)  
   FeOH+           2.557e-25   2.464e-25   -24.592   -24.608    -0.016     (0)  
   FeHCO3+         1.620e-25   1.560e-25   -24.791   -24.807    -0.016     (0)  
   Fe(OH)2         7.076e-28   7.078e-28   -27.150   -27.150     0.000     (0)  
   Fe(OH)3-        9.208e-30   8.874e-30   -29.036   -29.052    -0.016     (0)  
   FeSO4           6.335e-33   6.336e-33   -32.198   -32.198     0.000     30.28
   FeHSO4+         1.281e-40   1.234e-40   -39.892   -39.909    -0.016     (0)  
   Fe(HS)2         0.000e+00   0.000e+00  -322.065  -322.065     0.000     (0)  
   Fe(HS)3-        0.000e+00   0.000e+00  -473.701  -473.717    -0.016     (0)  
Fe(3)         9.286e-12
   Fe(OH)3         6.913e-12   6.915e-12   -11.160   -11.160     0.000     (0)  
   Fe(OH)4-        2.208e-12   2.128e-12   -11.656   -11.672    -0.016     (0)  
   Fe(OH)2+        1.650e-13   1.591e-13   -12.782   -12.798    -0.016     (0)  
   FeOH+2          1.651e-18   1.424e-18   -17.782   -17.847    -0.064     (0)  
   Fe+3            8.999e-25   6.534e-25   -24.046   -24.185    -0.139     (0)  
   FeSO4+          1.147e-31   1.105e-31   -30.940   -30.956    -0.016     (0)  
   Fe2(OH)2+4      9.925e-35   5.454e-35   -34.003   -34.263    -0.260     (0)  
   FeHSO4+2        1.019e-39   8.770e-40   -38.992   -39.057    -0.065     (0)  
   Fe(SO4)2-       0.000e+00   0.000e+00   -40.412   -40.428    -0.016     (0)  
   Fe3(OH)4+5      0.000e+00   0.000e+00   -44.335   -44.742    -0.406     (0)  
H(0)          0.000e+00
   H2              0.000e+00   0.000e+00   -45.150   -45.150     0.000     14.99
O(0)          1.730e-02
   O2              8.649e-03   8.652e-03    -2.063    -2.063     0.000     30.40
S(-2)         0.000e+00
   HS-             0.000e+00   0.000e+00  -153.673  -153.689    -0.016     20.60
   H2S             0.000e+00   0.000e+00  -155.276  -155.276     0.000     36.27
   S-2             0.000e+00   0.000e+00  -158.015  -158.079    -0.064     (0)  
   (H2S)2          0.000e+00   0.000e+00  -311.830  -311.830     0.000     30.09
   Fe(HS)2         0.000e+00   0.000e+00  -322.065  -322.065     0.000     (0)  
   Fe(HS)3-        0.000e+00   0.000e+00  -473.701  -473.717    -0.016     (0)  
S(6)          1.857e-11
   SO4-2           1.790e-11   1.543e-11   -10.747   -10.812    -0.064     14.54
   CaSO4           6.770e-13   6.770e-13   -12.169   -12.169     0.000      7.22
   HSO4-           4.614e-18   4.445e-18   -17.336   -17.352    -0.016     40.28
   CaHSO4+         1.745e-20   1.681e-20   -19.758   -19.774    -0.016     (0)  
   FeSO4+          1.147e-31   1.105e-31   -30.940   -30.956    -0.016     (0)  
   FeSO4           6.335e-33   6.336e-33   -32.198   -32.198     0.000     30.28
   FeHSO4+2        1.019e-39   8.770e-40   -38.992   -39.057    -0.065     (0)  
   FeHSO4+         1.281e-40   1.234e-40   -39.892   -39.909    -0.016     (0)  
   Fe(SO4)2-       0.000e+00   0.000e+00   -40.412   -40.428    -0.016     (0)  

------------------------------Saturation indices-------------------------------

  Phase               SI** log IAP   log K(298 K,   1 atm)

  Anhydrite       -10.00    -14.31   -4.31  CaSO4
  Aragonite        -0.14     -8.47   -8.34  CaCO3
  Calcite          -0.03     -8.47   -8.45  CaCO3
  CH4(g)         -146.15   -148.96   -2.80  CH4
  CO2(g)           -3.88     -5.35   -1.47  CO2
  Fe(OH)3(a)       -3.49      1.40    4.89  Fe(OH)3
  FeS(ppt)       -164.88   -168.80   -3.92  FeS
  Goethite          2.40      1.40   -1.00  FeOOH
  Gypsum           -9.77    -14.31   -4.55  CaSO4:2H2O
  H2(g)           -42.05    -45.15   -3.10  H2
  H2O(g)           -1.50     -0.00    1.50  H2O
  H2S(g)         -154.28   -162.22   -7.94  H2S
  Hematite          6.81      2.80   -4.01  Fe2O3
  Mackinawite    -164.15   -168.80   -4.65  FeS
  Melanterite     -32.24    -34.45   -2.21  FeSO4:7H2O
  O2(g)             0.83     -2.06   -2.89  O2
  Pyrite         -270.54   -289.02  -18.48  FeS2
  Siderite        -17.72    -28.61  -10.89  FeCO3
  Sulfur         -118.16   -113.28    4.88  S

**For a gas, SI = log10(fugacity). Fugacity = pressure * phi / 1 atm.
  For ideal gases, phi = 1.

Using mix 2.	
Using kinetics 2.	

Mixture 2.	

	  3.600e-17 Solution 1	Solution after simulation 2.                           
	  1.000e+00 Solution 2	Solution after simulation 2.                           
	  0.000e+00 Solution 3	                                                       

Kinetics 2.	

	Time:      18000 seconds
	Time step: 3600 seconds

	Rate name       Delta Moles Total Moles   Reactant        Coefficient

	Pyrite           -1.874e-13   5.000e-04   Pyrite                    1
	Calcite          -7.866e-07   2.625e-03   Calcite                   1
	C                -8.543e-07   5.000e-02   C                         1

-----------------------------Solution composition------------------------------

	Elements           Molality       Moles

	C                 7.324e-04   7.324e-04
	Ca                3.753e-04   3.753e-04
	Fe                9.283e-13   9.282e-13
	S                 1.857e-12   1.856e-12

----------------------------Description of solution----------------------------

                                       pH  =   8.543      Charge balance
                                       pe  =  12.457      Adjusted to redox equilibrium
      Specific Conductance (µS/cm,  25°C)  = 74
                          Density (g/cm³)  =   0.99711
                               Volume (L)  =   1.00323
                        Viscosity (mPa s)  =   0.89071
                        Activity of water  =   1.000
                 Ionic strength (mol/kgw)  =   1.121e-03
                       Mass of water (kg)  =   1.000e+00
                 Total alkalinity (eq/kg)  =   7.507e-04
                       Total CO2 (mol/kg)  =   7.324e-04
                         Temperature (°C)  =  25.00
                  Electrical balance (eq)  =  -8.231e-13
 Percent error, 100*(Cat-|An|)/(Cat+|An|)  =  -0.00
                               Iterations  = 200 (197 overall)
                                  Total H  = 1.110125e+02
                                  Total O  = 5.552536e+01

----------------------------Distribution of species----------------------------

                                               Log       Log       Log    mole V
   Species          Molality    Activity  Molality  Activity     Gamma   cm³/mol

   OH-             3.672e-06   3.535e-06    -5.435    -5.452    -0.016     -4.11
   H+              2.967e-09   2.863e-09    -8.528    -8.543    -0.016      0.00
   H2O             5.551e+01   9.998e-01     1.744    -0.000     0.000     18.07
C(-4)         0.000e+00
   CH4             0.000e+00   0.000e+00  -148.966  -148.966     0.000     35.46
C(4)          7.324e-04
   HCO3-           7.090e-04   6.832e-04    -3.149    -3.165    -0.016     24.56
   CO3-2           1.298e-05   1.119e-05    -4.887    -4.951    -0.064     -4.67
   CaCO3           5.984e-06   5.985e-06    -5.223    -5.223     0.000    -14.60
   CO2             4.397e-06   4.398e-06    -5.357    -5.357     0.000     34.79
   CaHCO3+         1.978e-11   1.907e-11   -10.704   -10.720    -0.016      9.67
   (CO2)2          3.144e-13   3.145e-13   -12.503   -12.502     0.000     68.75
   FeCO3           5.740e-26   5.741e-26   -25.241   -25.241     0.000     (0)  
   FeHCO3+         1.517e-26   1.461e-26   -25.819   -25.835    -0.016     (0)  
Ca            3.753e-04
   Ca+2            3.693e-04   3.183e-04    -3.433    -3.497    -0.065    -18.13
   CaCO3           5.984e-06   5.985e-06    -5.223    -5.223     0.000    -14.60
   CaOH+           1.916e-08   1.845e-08    -7.718    -7.734    -0.016     (0)  
   CaHCO3+         1.978e-11   1.907e-11   -10.704   -10.720    -0.016      9.67
   CaSO4           6.838e-14   6.839e-14   -13.165   -13.165     0.000      7.22
   CaHSO4+         1.704e-21   1.641e-21   -20.769   -20.785    -0.016     (0)  
Fe(2)         3.450e-25
   Fe+2            2.478e-25   2.138e-25   -24.606   -24.670    -0.064    -22.13
   FeCO3           5.740e-26   5.741e-26   -25.241   -25.241     0.000     (0)  
   FeOH+           2.451e-26   2.362e-26   -25.611   -25.627    -0.016     (0)  
   FeHCO3+         1.517e-26   1.461e-26   -25.819   -25.835    -0.016     (0)  
   Fe(OH)2         7.019e-29   7.021e-29   -28.154   -28.154     0.000     (0)  
   Fe(OH)3-        9.457e-31   9.111e-31   -30.024   -30.040    -0.016     (0)  
   FeSO4           5.856e-35   5.857e-35   -34.232   -34.232     0.000     30.28
   FeHSO4+         0.000e+00   0.000e+00   -41.941   -41.958    -0.016     (0)  
   Fe(HS)2         0.000e+00   0.000e+00  -325.129  -325.129     0.000     (0)  
   Fe(HS)3-        0.000e+00   0.000e+00  -477.780  -477.797    -0.016     (0)  
Fe(3)         9.283e-13
   Fe(OH)3         6.857e-13   6.859e-13   -12.164   -12.164     0.000     (0)  
   Fe(OH)4-        2.267e-13   2.185e-13   -12.644   -12.661    -0.016     (0)  
   Fe(OH)2+        1.582e-14   1.524e-14   -13.801   -13.817    -0.016     (0)  
   FeOH+2          1.530e-19   1.318e-19   -18.815   -18.880    -0.065     (0)  
   Fe+3            8.065e-26   5.844e-26   -25.093   -25.233    -0.140     (0)  
   FeSO4+          1.025e-33   9.871e-34   -32.989   -33.006    -0.016     (0)  
   Fe2(OH)2+4      8.540e-37   4.675e-37   -36.069   -36.330    -0.262     (0)  
   FeHSO4+2        0.000e+00   0.000e+00   -41.056   -41.121    -0.065     (0)  
   Fe(SO4)2-       0.000e+00   0.000e+00   -43.462   -43.478    -0.016     (0)  
   Fe3(OH)4+5      0.000e+00   0.000e+00   -47.418   -47.827    -0.409     (0)  
H(0)          0.000e+00
   H2              0.000e+00   0.000e+00   -45.150   -45.150     0.000     14.99
O(0)          1.729e-02
   O2              8.645e-03   8.648e-03    -2.063    -2.063     0.000     30.40
S(-2)         0.000e+00
   HS-             0.000e+00   0.000e+00  -154.688  -154.705    -0.016     20.60
   H2S             0.000e+00   0.000e+00  -156.306  -156.306     0.000     36.27
   S-2             0.000e+00   0.000e+00  -159.015  -159.079    -0.065     (0)  
   (H2S)2          0.000e+00   0.000e+00  -313.891  -313.890     0.000     30.09
   Fe(HS)2         0.000e+00   0.000e+00  -325.129  -325.129     0.000     (0)  
   Fe(HS)3-        0.000e+00   0.000e+00  -477.780  -477.797    -0.016     (0)  
S(6)          1.857e-12
   SO4-2           1.788e-12   1.540e-12   -11.748   -11.812    -0.065     14.54
   CaSO4           6.838e-14   6.839e-14   -13.165   -13.165     0.000      7.22
   HSO4-           4.451e-19   4.287e-19   -18.352   -18.368    -0.016     40.28
   CaHSO4+         1.704e-21   1.641e-21   -20.769   -20.785    -0.016     (0)  
   FeSO4+          1.025e-33   9.871e-34   -32.989   -33.006    -0.016     (0)  
   FeSO4           5.856e-35   5.857e-35   -34.232   -34.232     0.000     30.28
   FeHSO4+2        0.000e+00   0.000e+00   -41.056   -41.121    -0.065     (0)  
   FeHSO4+         0.000e+00   0.000e+00   -41.941   -41.958    -0.016     (0)  
   Fe(SO4)2-       0.000e+00   0.000e+00   -43.462   -43.478    -0.016     (0)  

------------------------------Saturation indices-------------------------------

  Phase               SI** log IAP   log K(298 K,   1 atm)

  Anhydrite       -11.00    -15.31   -4.31  CaSO4
  Aragonite        -0.11     -8.45   -8.34  CaCO3
  Calcite          -0.00     -8.45   -8.45  CaCO3
  CH4(g)         -146.16   -148.97   -2.80  CH4
  CO2(g)           -3.89     -5.36   -1.47  CO2
  Fe(OH)3(a)       -4.49      0.40    4.89  Fe(OH)3
  FeS(ppt)       -166.92   -170.83   -3.92  FeS
  Goethite          1.40      0.40   -1.00  FeOOH
  Gypsum          -10.76    -15.31   -4.55  CaSO4:2H2O
  H2(g)           -42.05    -45.15   -3.10  H2
  H2O(g)           -1.50     -0.00    1.50  H2O
  H2S(g)         -155.31   -163.25   -7.94  H2S
  Hematite          4.80      0.79   -4.01  Fe2O3
  Mackinawite    -166.18   -170.83   -4.65  FeS
  Melanterite     -34.27    -36.48   -2.21  FeSO4:7H2O
  O2(g)             0.83     -2.06   -2.89  O2
  Pyrite         -273.60   -292.08  -18.48  FeS2
  Siderite        -18.73    -29.62  -10.89  FeCO3
  Sulfur         -119.19   -114.31    4.88  S

**For a gas, SI = log10(fugacity). Fugacity = pressure * phi / 1 atm.
  For ideal gases, phi = 1.

------------------
End of simulation.
------------------

------------------------------------
Reading input data for simulation 3.
------------------------------------

