WARNING: Database file from DATABASE keyword is used; command line argument ignored.
   Input file: de
  Output file: de.out
Database file: ../database/phreeqc.dat

------------------
Reading data base.
------------------

	SOLUTION_MASTER_SPECIES
	SOLUTION_SPECIES
	PHASES
	GAS_BINARY_PARAMETERS
	EXCHANGE_MASTER_SPECIES
	EXCHANGE_SPECIES
	SURFACE_MASTER_SPECIES
	SURFACE_SPECIES
	MEAN_GAMMAS
	RATES
	END
------------------------------------
Reading input data for simulation 1.
------------------------------------

	DATABASE ../database/phreeqc.dat
	SELECTED_OUTPUT 101
	    file                 de_101.sel
	USER_PUNCH 101
	    headings Mu SC
	    start
	10 PUNCH STR_F$(MU, 20, 12)
	20 PUNCH STR_F$(SC, 20, 10)
	    end
	 SOLUTION_SPECIES
	  H2O + 0.01e- = H2O-0.01  # For program convergence
	  log_k  -9.0 
	 EQUILIBRIUM_PHASES 1-50   # Define sediment
	  Goethite 3.0  10.7e-3    # Goetite equilibrium, SI, moles (100 ppm Fe in solid)
	 SOLUTION 1-50             # Define groundwater, 50 cells
	  temp 10
	  pH   7.0
	  pe   0.0  Goethite 3.0
	  Ca   3
	  C(4) 6 charge
	  Fe   0.1
	  Cl   1e-3                # Cl added as tracer
	END
-------------------------------------------
Beginning of initial solution calculations.
-------------------------------------------

Initial solution 1.	

-----------------------------Solution composition------------------------------

	Elements           Molality       Moles

	C(4)              7.814e-03   7.814e-03  Charge balance
	Ca                3.000e-03   3.000e-03
	Cl                1.000e-06   1.000e-06
	Fe                1.000e-04   1.000e-04

----------------------------Description of solution----------------------------

                                       pH  =   7.000    
                                       pe  =  -0.717      Equilibrium with Goethite
      Specific Conductance (µS/cm,  10°C)  = 383
                          Density (g/cm³)  =   1.00013
                               Volume (L)  =   1.00044
                        Viscosity (mPa s)  =   1.31039
                        Activity of water  =   1.000
                 Ionic strength (mol/kgw)  =   9.223e-03
                       Mass of water (kg)  =   1.000e+00
                 Total alkalinity (eq/kg)  =   6.199e-03
                       Total CO2 (mol/kg)  =   7.814e-03
                         Temperature (°C)  =  10.00
                  Electrical balance (eq)  =   1.839e-17
 Percent error, 100*(Cat-|An|)/(Cat+|An|)  =   0.00
                               Iterations  =   5
                                  Total H  = 1.110186e+02
                                  Total O  = 5.552803e+01

----------------------------Distribution of species----------------------------

                                               Log       Log       Log    mole V
   Species          Molality    Activity  Molality  Activity     Gamma   cm³/mol

   H+              1.090e-07   1.000e-07    -6.963    -7.000    -0.037      0.00
   OH-             3.248e-08   2.941e-08    -7.488    -7.531    -0.043     -4.95
   H2O-0.01        1.016e-09   1.016e-09    -8.993    -8.993    -0.000     (0)  
   H2O             5.551e+01   9.998e-01     1.744    -0.000     0.000     18.02
C(4)          7.814e-03
   HCO3-           6.150e-03   5.598e-03    -2.211    -2.252    -0.041     23.09
   CO2             1.625e-03   1.627e-03    -2.789    -2.789     0.001     34.06
   FeHCO3+         2.924e-05   2.653e-05    -4.534    -4.576    -0.042     (0)  
   CaCO3           5.098e-06   5.109e-06    -5.293    -5.292     0.001    -14.66
   CO3-2           2.653e-06   1.820e-06    -5.576    -5.740    -0.164     -6.43
   FeCO3           2.065e-06   2.069e-06    -5.685    -5.684     0.001     (0)  
   (CO2)2          1.803e-08   1.805e-08    -7.744    -7.743     0.001     67.29
   CaHCO3+         3.330e-11   3.035e-11   -10.478   -10.518    -0.040      8.97
Ca            3.000e-03
   Ca+2            2.995e-03   2.054e-03    -2.524    -2.687    -0.164    -18.26
   CaCO3           5.098e-06   5.109e-06    -5.293    -5.292     0.001    -14.66
   CaOH+           3.756e-09   3.408e-09    -8.425    -8.468    -0.042     (0)  
   CaHCO3+         3.330e-11   3.035e-11   -10.478   -10.518    -0.040      8.97
Cl            1.000e-06
   Cl-             9.999e-07   9.061e-07    -6.000    -6.043    -0.043     17.42
   FeCl+           6.532e-11   5.927e-11   -10.185   -10.227    -0.042     (0)  
   HCl             3.395e-14   3.426e-14   -13.469   -13.465     0.004     19.06
   FeCl+2          8.862e-24   6.056e-24   -23.052   -23.218    -0.165     (0)  
   FeCl2+          4.448e-29   4.044e-29   -28.352   -28.393    -0.041     (0)  
   FeCl3           3.657e-36   3.664e-36   -35.437   -35.436     0.001     (0)  
Fe(2)         1.000e-04
   Fe+2            6.865e-05   4.738e-05    -4.163    -4.324    -0.161    -23.15
   FeHCO3+         2.924e-05   2.653e-05    -4.534    -4.576    -0.042     (0)  
   FeCO3           2.065e-06   2.069e-06    -5.685    -5.684     0.001     (0)  
   FeOH+           5.062e-08   4.602e-08    -7.296    -7.337    -0.041     (0)  
   FeCl+           6.532e-11   5.927e-11   -10.185   -10.227    -0.042     (0)  
   Fe(OH)2         9.894e-13   9.915e-13   -12.005   -12.004     0.001     (0)  
   Fe(OH)3-        3.469e-16   3.154e-16   -15.460   -15.501    -0.041     (0)  
Fe(3)         2.958e-11
   Fe(OH)2+        1.858e-11   1.691e-11   -10.731   -10.772    -0.041     (0)  
   Fe(OH)3         1.092e-11   1.094e-11   -10.962   -10.961     0.001     (0)  
   Fe(OH)4-        5.812e-14   5.290e-14   -13.236   -13.277    -0.041     (0)  
   FeOH+2          1.361e-14   9.301e-15   -13.866   -14.031    -0.165     (0)  
   Fe+3            7.909e-19   3.651e-19   -18.102   -18.438    -0.336     (0)  
   FeCl+2          8.862e-24   6.056e-24   -23.052   -23.218    -0.165     (0)  
   Fe2(OH)2+4      2.120e-26   4.472e-27   -25.674   -26.350    -0.676     (0)  
   FeCl2+          4.448e-29   4.044e-29   -28.352   -28.393    -0.041     (0)  
   Fe3(OH)4+5      7.723e-34   6.787e-35   -33.112   -34.168    -1.056     (0)  
   FeCl3           3.657e-36   3.664e-36   -35.437   -35.436     0.001     (0)  
H(0)          4.498e-16
   H2              2.249e-16   2.254e-16   -15.648   -15.647     0.001     13.63
O(0)          0.000e+00
   O2              0.000e+00   0.000e+00   -66.331   -66.330     0.001     28.95

------------------------------Saturation indices-------------------------------

  Phase               SI** log IAP   log K(283 K,   1 atm)

  Aragonite        -0.17     -8.43   -8.26  CaCO3
  Calcite          -0.08     -8.43   -8.35  CaCO3
  CO2(g)           -1.52     -2.79   -1.27  CO2
  Fe(OH)3(a)       -2.33      2.56    4.89  Fe(OH)3
  Goethite          3.00      2.56   -0.44  FeOOH
  H2(g)           -12.59    -15.65   -3.06  H2
  H2O(g)           -1.91     -0.00    1.91  H2O
  Hematite          7.93      5.12   -2.81  Fe2O3
  O2(g)           -63.56    -66.33   -2.77  O2
  Siderite          0.73    -10.06  -10.79  FeCO3

**For a gas, SI = log10(fugacity). Fugacity = pressure * phi / 1 atm.
  For ideal gases, phi = 1.

-----------------------------------------
Beginning of batch-reaction calculations.
-----------------------------------------

Reaction step 1.

Using solution 1.	
Using pure phase assemblage 1.	

-------------------------------Phase assemblage--------------------------------

                                                      Moles in assemblage
Phase               SI  log IAP  log K(T, P)   Initial       Final       Delta

Goethite          3.00     2.56     -0.44    1.070e-02   1.070e-02   3.291e-14

-----------------------------Solution composition------------------------------

	Elements           Molality       Moles

	C                 7.814e-03   7.814e-03
	Ca                3.000e-03   3.000e-03
	Cl                1.000e-06   1.000e-06
	Fe                1.000e-04   1.000e-04

----------------------------Description of solution----------------------------

                                       pH  =   7.000      Charge balance
                                       pe  =  -0.717      Adjusted to redox equilibrium
      Specific Conductance (µS/cm,  10°C)  = 383
                          Density (g/cm³)  =   1.00013
                               Volume (L)  =   1.00044
                        Viscosity (mPa s)  =   1.31039
                        Activity of water  =   1.000
                 Ionic strength (mol/kgw)  =   9.223e-03
                       Mass of water (kg)  =   1.000e+00
                 Total alkalinity (eq/kg)  =   6.199e-03
                       Total CO2 (mol/kg)  =   7.814e-03
                         Temperature (°C)  =  10.00
                  Electrical balance (eq)  =   2.517e-17
 Percent error, 100*(Cat-|An|)/(Cat+|An|)  =   0.00
                               Iterations  =   1
                                  Total H  = 1.110186e+02
                                  Total O  = 5.552803e+01

----------------------------Distribution of species----------------------------

                                               Log       Log       Log    mole V
   Species          Molality    Activity  Molality  Activity     Gamma   cm³/mol

   H+              1.090e-07   1.000e-07    -6.963    -7.000    -0.037      0.00
   OH-             3.248e-08   2.941e-08    -7.488    -7.531    -0.043     -4.95
   H2O-0.01        1.016e-09   1.016e-09    -8.993    -8.993    -0.000     (0)  
   H2O             5.551e+01   9.998e-01     1.744    -0.000     0.000     18.02
C(-4)         2.750e-27
   CH4             2.750e-27   2.756e-27   -26.561   -26.560     0.001     33.98
C(4)          7.814e-03
   HCO3-           6.150e-03   5.598e-03    -2.211    -2.252    -0.041     23.09
   CO2             1.625e-03   1.627e-03    -2.789    -2.789     0.001     34.06
   FeHCO3+         2.924e-05   2.653e-05    -4.534    -4.576    -0.042     (0)  
   CaCO3           5.098e-06   5.109e-06    -5.293    -5.292     0.001    -14.66
   CO3-2           2.653e-06   1.820e-06    -5.576    -5.740    -0.164     -6.43
   FeCO3           2.065e-06   2.069e-06    -5.685    -5.684     0.001     (0)  
   (CO2)2          1.803e-08   1.805e-08    -7.744    -7.743     0.001     67.29
   CaHCO3+         3.330e-11   3.035e-11   -10.478   -10.518    -0.040      8.97
Ca            3.000e-03
   Ca+2            2.995e-03   2.054e-03    -2.524    -2.687    -0.164    -18.26
   CaCO3           5.098e-06   5.109e-06    -5.293    -5.292     0.001    -14.66
   CaOH+           3.756e-09   3.408e-09    -8.425    -8.468    -0.042     (0)  
   CaHCO3+         3.330e-11   3.035e-11   -10.478   -10.518    -0.040      8.97
Cl            1.000e-06
   Cl-             9.999e-07   9.061e-07    -6.000    -6.043    -0.043     17.42
   FeCl+           6.532e-11   5.927e-11   -10.185   -10.227    -0.042     (0)  
   HCl             3.395e-14   3.426e-14   -13.469   -13.465     0.004     19.06
   FeCl+2          8.862e-24   6.056e-24   -23.052   -23.218    -0.165     (0)  
   FeCl2+          4.448e-29   4.044e-29   -28.352   -28.393    -0.041     (0)  
   FeCl3           3.657e-36   3.664e-36   -35.437   -35.436     0.001     (0)  
Fe(2)         1.000e-04
   Fe+2            6.865e-05   4.738e-05    -4.163    -4.324    -0.161    -23.15
   FeHCO3+         2.924e-05   2.653e-05    -4.534    -4.576    -0.042     (0)  
   FeCO3           2.065e-06   2.069e-06    -5.685    -5.684     0.001     (0)  
   FeOH+           5.062e-08   4.602e-08    -7.296    -7.337    -0.041     (0)  
   FeCl+           6.532e-11   5.927e-11   -10.185   -10.227    -0.042     (0)  
   Fe(OH)2         9.894e-13   9.915e-13   -12.005   -12.004     0.001     (0)  
   Fe(OH)3-        3.469e-16   3.154e-16   -15.460   -15.501    -0.041     (0)  
Fe(3)         2.958e-11
   Fe(OH)2+        1.858e-11   1.691e-11   -10.731   -10.772    -0.041     (0)  
   Fe(OH)3         1.092e-11   1.094e-11   -10.962   -10.961     0.001     (0)  
   Fe(OH)4-        5.812e-14   5.290e-14   -13.236   -13.277    -0.041     (0)  
   FeOH+2          1.361e-14   9.301e-15   -13.866   -14.031    -0.165     (0)  
   Fe+3            7.909e-19   3.651e-19   -18.102   -18.438    -0.336     (0)  
   FeCl+2          8.862e-24   6.056e-24   -23.052   -23.218    -0.165     (0)  
   Fe2(OH)2+4      2.120e-26   4.472e-27   -25.674   -26.350    -0.676     (0)  
   FeCl2+          4.448e-29   4.044e-29   -28.352   -28.393    -0.041     (0)  
   Fe3(OH)4+5      7.723e-34   6.787e-35   -33.112   -34.168    -1.056     (0)  
   FeCl3           3.657e-36   3.664e-36   -35.437   -35.436     0.001     (0)  
H(0)          4.498e-16
   H2              2.249e-16   2.254e-16   -15.648   -15.647     0.001     13.63
O(0)          0.000e+00
   O2              0.000e+00   0.000e+00   -66.331   -66.330     0.001     28.95

------------------------------Saturation indices-------------------------------

  Phase               SI** log IAP   log K(283 K,   1 atm)

  Aragonite        -0.17     -8.43   -8.26  CaCO3
  Calcite          -0.08     -8.43   -8.35  CaCO3
  CH4(g)          -23.93    -26.56   -2.63  CH4
  CO2(g)           -1.52     -2.79   -1.27  CO2
  Fe(OH)3(a)       -2.33      2.56    4.89  Fe(OH)3
  Goethite          3.00      2.56   -0.44  FeOOH
  H2(g)           -12.59    -15.65   -3.06  H2
  H2O(g)           -1.91     -0.00    1.91  H2O
  Hematite          7.93      5.12   -2.81  Fe2O3
  O2(g)           -63.56    -66.33   -2.77  O2
  Siderite          0.73    -10.06  -10.79  FeCO3

**For a gas, SI = log10(fugacity). Fugacity = pressure * phi / 1 atm.
  For ideal gases, phi = 1.

------------------
End of simulation.
------------------

------------------------------------
Reading input data for simulation 2.
------------------------------------

	 EXCHANGE 1-50
	  X    0.06
	  equilibrate 1
	 SURFACE  1-50
	  Hfo_wOH Goethite 0.2 5.3e4 # Coupled to Goethite, proportion, m2/mol
	  Hfo_sOH Goethite 1e-3      # Coupled to Goethite, proportion
	  equilibrate 1
	END
-------------------------------------------------------
Beginning of initial exchange-composition calculations.
-------------------------------------------------------

Exchange 1.	

X                6.000e-02 mol

	                               Equiv-    Equivalent      Log 
	Species             Moles      alents      Fraction     Gamma

	CaX2              2.965e-02   5.931e-02   9.885e-01    -0.164
	FeX2              3.461e-04   6.921e-04   1.154e-02    -0.161

------------------------------------------------------
Beginning of initial surface-composition calculations.
------------------------------------------------------

Surface 1.	

Diffuse Double Layer Surface-Complexation Model

Hfo           
	  2.182e-05  Surface charge, eq
	  3.712e-03  sigma, C/m²
	  1.567e-02  psi, V
	 -6.423e-01  -F*psi/RT
	  5.261e-01  exp(-F*psi/RT)
	  5.300e+04  specific area, m²/mol Goethite
	  5.671e+02  m² for   1.070e-02 moles of Goethite


Hfo_s         
	  1.070e-05  moles	[0.001 mol/(mol Goethite)]
	                                   Mole                     Log
	Species               Moles    Fraction    Molality    Molality

	Hfo_sOHCa+2       6.833e-06       0.639   6.833e-06      -5.165
	Hfo_sOFe+         3.603e-06       0.337   3.603e-06      -5.443
	Hfo_sOH2+         1.321e-07       0.012   1.321e-07      -6.879
	Hfo_sOH           1.288e-07       0.012   1.288e-07      -6.890
	Hfo_sO-           2.877e-09       0.000   2.877e-09      -8.541

Hfo_w         
	  2.140e-03  moles	[0.2 mol/(mol Goethite)]
	                                   Mole                     Log
	Species               Moles    Fraction    Molality    Molality

	Hfo_wHCO3         1.452e-03       0.679   1.452e-03      -2.838
	Hfo_wCO3-         2.404e-04       0.112   2.404e-04      -3.619
	Hfo_wOH2+         1.963e-04       0.092   1.963e-04      -3.707
	Hfo_wOH           1.913e-04       0.089   1.913e-04      -3.718
	Hfo_wOFe+         4.994e-05       0.023   4.994e-05      -4.302
	Hfo_wO-           4.273e-06       0.002   4.273e-06      -5.369
	Hfo_wOCa+         2.920e-06       0.001   2.920e-06      -5.535
	Hfo_wOFeOH        2.555e-06       0.001   2.555e-06      -5.593

------------------
End of simulation.
------------------

------------------------------------
Reading input data for simulation 3.
------------------------------------

	 PRINT
	  reset false
WARNING: Cell-lengths were read for 1 cells. Last value is used till cell 15.
WARNING: Dispersivities were read for 1 cells. Last value is used till cell 15.

Calculating transport: 15 (mobile) cells, 10 shifts, 1 mixruns...


Calculating transport: 15 (mobile) cells, 30 shifts, 1 mixruns...


Calculating transport: 15 (mobile) cells, 10 shifts, 1 mixruns...


Calculating transport: 15 (mobile) cells, 30 shifts, 1 mixruns...


Calculating transport: 15 (mobile) cells, 10 shifts, 1 mixruns...


Calculating transport: 15 (mobile) cells, 30 shifts, 1 mixruns...

