WARNING: Database file from DATABASE keyword is used; command line argument ignored.
   Input file: debye1
  Output file: debye1.out
Database file: ../database/phreeqc.dat

------------------
Reading data base.
------------------

	SOLUTION_MASTER_SPECIES
	SOLUTION_SPECIES
	PHASES
	GAS_BINARY_PARAMETERS
	EXCHANGE_MASTER_SPECIES
	EXCHANGE_SPECIES
	SURFACE_MASTER_SPECIES
	SURFACE_SPECIES
	MEAN_GAMMAS
	RATES
	END
------------------------------------
Reading input data for simulation 1.
------------------------------------

	DATABASE ../database/phreeqc.dat
	SELECTED_OUTPUT 101
	    file                 debye1_101.sel
	USER_PUNCH 101
	    headings Mu SC
	    start
	10 PUNCH STR_F$(MU, 20, 12)
	20 PUNCH STR_F$(SC, 20, 10)
	    end
	SOLUTION 0
	 Na 100
	 Cl 100 charge
	SOLUTION 1-10
	 Ca 0.1
	 C(4) 1 charge
	 water 1
	SURFACE_MASTER_SPECIES
	 Su Su-
	SURFACE_SPECIES
	 Su- = Su-
	 log_k 0
	END
-------------------------------------------
Beginning of initial solution calculations.
-------------------------------------------

Initial solution 0.	

-----------------------------Solution composition------------------------------

	Elements           Molality       Moles

	Cl                1.000e-01   1.000e-01  Charge balance
	Na                1.000e-01   1.000e-01

----------------------------Description of solution----------------------------

                                       pH  =   7.000    
                                       pe  =   4.000    
      Specific Conductance (µS/cm,  25°C)  = 10609
                          Density (g/cm³)  =   1.00115
                               Volume (L)  =   1.00469
                        Viscosity (mPa s)  =   0.89854
                        Activity of water  =   0.997
                 Ionic strength (mol/kgw)  =   1.000e-01
                       Mass of water (kg)  =   1.000e+00
                 Total alkalinity (eq/kg)  =   8.896e-09
                         Temperature (°C)  =  25.00
                  Electrical balance (eq)  =  -1.252e-15
 Percent error, 100*(Cat-|An|)/(Cat+|An|)  =  -0.00
                               Iterations  =   9
                                  Total H  = 1.110124e+02
                                  Total O  = 5.550622e+01

----------------------------Distribution of species----------------------------

                                               Log       Log       Log    mole V
   Species          Molality    Activity  Molality  Activity     Gamma   cm³/mol

   OH-             1.324e-07   1.009e-07    -6.878    -6.996    -0.118     -3.73
   H+              1.212e-07   1.000e-07    -6.917    -7.000    -0.083      0.00
   H2O             5.551e+01   9.966e-01     1.744    -0.001     0.000     18.07
Cl            1.000e-01
   Cl-             1.000e-01   7.666e-02    -1.000    -1.115    -0.115     18.34
   HCl             2.394e-09   2.641e-09    -8.621    -8.578     0.043     20.36
H(0)          1.382e-25
   H2              6.910e-26   7.079e-26   -25.161   -25.150     0.011     14.99
Na            1.000e-01
   Na+             1.000e-01   7.851e-02    -1.000    -1.105    -0.105     -1.09
O(0)          0.000e+00
   O2              0.000e+00   0.000e+00   -42.076   -42.066     0.010     30.40

------------------------------Saturation indices-------------------------------

  Phase               SI** log IAP   log K(298 K,   1 atm)

  H2(g)           -22.05    -25.15   -3.10  H2
  H2O(g)           -1.50     -0.00    1.50  H2O
  Halite           -3.79     -2.22    1.57  NaCl
  O2(g)           -39.17    -42.07   -2.89  O2

**For a gas, SI = log10(fugacity). Fugacity = pressure * phi / 1 atm.
  For ideal gases, phi = 1.

Initial solution 1.	

-----------------------------Solution composition------------------------------

	Elements           Molality       Moles

	C(4)              2.439e-04   2.439e-04  Charge balance
	Ca                1.000e-04   1.000e-04

----------------------------Description of solution----------------------------

                                       pH  =   7.000    
                                       pe  =   4.000    
      Specific Conductance (µS/cm,  25°C)  = 20
                          Density (g/cm³)  =   0.99706
                               Volume (L)  =   1.00297
                        Viscosity (mPa s)  =   0.89033
                        Activity of water  =   1.000
                 Ionic strength (mol/kgw)  =   3.002e-04
                       Mass of water (kg)  =   1.000e+00
                 Total alkalinity (eq/kg)  =   2.000e-04
                       Total CO2 (mol/kg)  =   2.439e-04
                         Temperature (°C)  =  25.00
                  Electrical balance (eq)  =  -1.300e-12
 Percent error, 100*(Cat-|An|)/(Cat+|An|)  =  -0.00
                               Iterations  =   5 (14 overall)
                                  Total H  = 1.110126e+02
                                  Total O  = 5.550690e+01

----------------------------Distribution of species----------------------------

                                               Log       Log       Log    mole V
   Species          Molality    Activity  Molality  Activity     Gamma   cm³/mol

   OH-             1.033e-07   1.012e-07    -6.986    -6.995    -0.009     -4.12
   H+              1.020e-07   1.000e-07    -6.992    -7.000    -0.008      0.00
   H2O             5.551e+01   1.000e+00     1.744    -0.000     0.000     18.07
C(4)          2.439e-04
   HCO3-           1.998e-04   1.959e-04    -3.699    -3.708    -0.009     24.54
   CO2             4.404e-05   4.404e-05    -4.356    -4.356     0.000     34.79
   CO3-2           9.940e-08   9.186e-08    -7.003    -7.037    -0.034     -4.74
   CaCO3           1.426e-08   1.426e-08    -7.846    -7.846     0.000    -14.60
   (CO2)2          3.153e-11   3.153e-11   -10.501   -10.501     0.000     68.75
   CaHCO3+         1.618e-12   1.587e-12   -11.791   -11.800    -0.009      9.66
Ca            1.000e-04
   Ca+2            9.999e-05   9.239e-05    -4.000    -4.034    -0.034    -18.19
   CaCO3           1.426e-08   1.426e-08    -7.846    -7.846     0.000    -14.60
   CaOH+           1.564e-10   1.533e-10    -9.806    -9.814    -0.009     (0)  
   CaHCO3+         1.618e-12   1.587e-12   -11.791   -11.800    -0.009      9.66
H(0)          1.416e-25
   H2              7.079e-26   7.079e-26   -25.150   -25.150     0.000     14.99
O(0)          0.000e+00
   O2              0.000e+00   0.000e+00   -42.063   -42.063     0.000     30.40

------------------------------Saturation indices-------------------------------

  Phase               SI** log IAP   log K(298 K,   1 atm)

  Aragonite        -2.74    -11.07   -8.34  CaCO3
  Calcite          -2.62    -11.07   -8.45  CaCO3
  CO2(g)           -2.89     -4.36   -1.47  CO2
  H2(g)           -22.05    -25.15   -3.10  H2
  H2O(g)           -1.50     -0.00    1.50  H2O
  O2(g)           -39.17    -42.06   -2.89  O2

**For a gas, SI = log10(fugacity). Fugacity = pressure * phi / 1 atm.
  For ideal gases, phi = 1.

------------------
End of simulation.
------------------

------------------------------------
Reading input data for simulation 2.
------------------------------------

	TRANSPORT
	 cells 10
	 length 1e-9
	 shifts 1 0
	 bcond 1 2
	 timest 5e-10
	 punch_frequency 1
	 multi_d true 1e-9 1 0 1
	SELECTED_OUTPUT
WARNING: Cell-lengths were read for 1 cells. Last value is used till cell 10.
WARNING: No dispersivities were read; disp = 0 assumed.
WARNING: No porosities were read; used the value 1.00e+00 from -multi_D.
	 file debye1.sel
	 reset false
	USER_PUNCH
	 heading dist H2O_aq H2O_edl H2O_tot Na Cl pH mass_Na mass_Cl
	 start
	 1 if step_no = 0 then goto 80
	 10 punch dist, tot("water"), edl("water"), tot("water") + edl("water"), tot("Na")*1e3, tot("Cl")*1e3, -la("H+")
	 20 if cell_no = 1 then put(0, 1)
	 30 if cell_no = 1 then put(0, 2)
	 40 put(sys("Na") + get(1), 1)
	 50 put(sys("Cl") + get(2), 2)
	 60 if cell_no = 10 then punch get(1) * 1e3
	 70 if cell_no = 10 then punch get(2) * 1e3
	 80 end
	 end
	END
------------------------------------
Beginning of transport calculations.
------------------------------------

-------------------------------
Equilibrating initial solutions
-------------------------------

Using solution 0.	

-----------------------------Solution composition------------------------------

	Elements           Molality       Moles

	Cl                1.000e-01   1.000e-01
	Na                1.000e-01   1.000e-01

----------------------------Description of solution----------------------------

                                       pH  =   7.000      Charge balance
                                       pe  =   4.000      Adjusted to redox equilibrium
      Specific Conductance (µS/cm,  25°C)  = 10609
                          Density (g/cm³)  =   1.00115
                               Volume (L)  =   1.00469
                        Viscosity (mPa s)  =   0.89854
                        Activity of water  =   0.997
                 Ionic strength (mol/kgw)  =   1.000e-01
                       Mass of water (kg)  =   1.000e+00
                 Total alkalinity (eq/kg)  =   8.896e-09
                         Temperature (°C)  =  25.00
                  Electrical balance (eq)  =  -1.252e-15
 Percent error, 100*(Cat-|An|)/(Cat+|An|)  =  -0.00
                               Iterations  =   0
                                  Total H  = 1.110124e+02
                                  Total O  = 5.550622e+01

----------------------------Distribution of species----------------------------

                                               Log       Log       Log    mole V
   Species          Molality    Activity  Molality  Activity     Gamma   cm³/mol

   OH-             1.324e-07   1.009e-07    -6.878    -6.996    -0.118     -3.73
   H+              1.212e-07   1.000e-07    -6.917    -7.000    -0.083      0.00
   H2O             5.551e+01   9.966e-01     1.744    -0.001     0.000     18.07
Cl            1.000e-01
   Cl-             1.000e-01   7.666e-02    -1.000    -1.115    -0.115     18.34
   HCl             2.394e-09   2.641e-09    -8.621    -8.578     0.043     20.36
H(0)          1.382e-25
   H2              6.910e-26   7.079e-26   -25.161   -25.150     0.011     14.99
Na            1.000e-01
   Na+             1.000e-01   7.851e-02    -1.000    -1.105    -0.105     -1.09
O(0)          0.000e+00
   O2              0.000e+00   0.000e+00   -42.076   -42.066     0.010     30.40

------------------------------Saturation indices-------------------------------

  Phase               SI** log IAP   log K(298 K,   1 atm)

  H2(g)           -22.05    -25.15   -3.10  H2
  H2O(g)           -1.50     -0.00    1.50  H2O
  Halite           -3.79     -2.22    1.57  NaCl
  O2(g)           -39.17    -42.07   -2.89  O2

**For a gas, SI = log10(fugacity). Fugacity = pressure * phi / 1 atm.
  For ideal gases, phi = 1.

Using solution 1.	

-----------------------------Solution composition------------------------------

	Elements           Molality       Moles

	C                 2.439e-04   2.439e-04
	Ca                1.000e-04   1.000e-04

----------------------------Description of solution----------------------------

                                       pH  =   7.000      Charge balance
                                       pe  =   4.000      Adjusted to redox equilibrium
      Specific Conductance (µS/cm,  25°C)  = 20
                          Density (g/cm³)  =   0.99706
                               Volume (L)  =   1.00297
                        Viscosity (mPa s)  =   0.89033
                        Activity of water  =   1.000
                 Ionic strength (mol/kgw)  =   3.002e-04
                       Mass of water (kg)  =   1.000e+00
                 Total alkalinity (eq/kg)  =   2.000e-04
                       Total CO2 (mol/kg)  =   2.439e-04
                         Temperature (°C)  =  25.00
                  Electrical balance (eq)  =  -1.300e-12
 Percent error, 100*(Cat-|An|)/(Cat+|An|)  =  -0.00
                               Iterations  =   0
                                  Total H  = 1.110126e+02
                                  Total O  = 5.550690e+01

----------------------------Distribution of species----------------------------

                                               Log       Log       Log    mole V
   Species          Molality    Activity  Molality  Activity     Gamma   cm³/mol

   OH-             1.033e-07   1.012e-07    -6.986    -6.995    -0.009     -4.12
   H+              1.020e-07   1.000e-07    -6.992    -7.000    -0.008      0.00
   H2O             5.551e+01   1.000e+00     1.744    -0.000     0.000     18.07
C(-4)         0.000e+00
   CH4             0.000e+00   0.000e+00   -67.966   -67.966     0.000     35.46
C(4)          2.439e-04
   HCO3-           1.998e-04   1.959e-04    -3.699    -3.708    -0.009     24.54
   CO2             4.404e-05   4.404e-05    -4.356    -4.356     0.000     34.79
   CO3-2           9.940e-08   9.186e-08    -7.003    -7.037    -0.034     -4.74
   CaCO3           1.426e-08   1.426e-08    -7.846    -7.846     0.000    -14.60
   (CO2)2          3.153e-11   3.153e-11   -10.501   -10.501     0.000     68.75
   CaHCO3+         1.618e-12   1.587e-12   -11.791   -11.800    -0.009      9.66
Ca            1.000e-04
   Ca+2            9.999e-05   9.239e-05    -4.000    -4.034    -0.034    -18.19
   CaCO3           1.426e-08   1.426e-08    -7.846    -7.846     0.000    -14.60
   CaOH+           1.564e-10   1.533e-10    -9.806    -9.814    -0.009     (0)  
   CaHCO3+         1.618e-12   1.587e-12   -11.791   -11.800    -0.009      9.66
H(0)          1.416e-25
   H2              7.079e-26   7.079e-26   -25.150   -25.150     0.000     14.99
O(0)          0.000e+00
   O2              0.000e+00   0.000e+00   -42.063   -42.063     0.000     30.40

------------------------------Saturation indices-------------------------------

  Phase               SI** log IAP   log K(298 K,   1 atm)

  Aragonite        -2.74    -11.07   -8.34  CaCO3
  Calcite          -2.62    -11.07   -8.45  CaCO3
  CH4(g)          -65.16    -67.97   -2.80  CH4
  CO2(g)           -2.89     -4.36   -1.47  CO2
  H2(g)           -22.05    -25.15   -3.10  H2
  H2O(g)           -1.50     -0.00    1.50  H2O
  O2(g)           -39.17    -42.06   -2.89  O2

**For a gas, SI = log10(fugacity). Fugacity = pressure * phi / 1 atm.
  For ideal gases, phi = 1.

Using solution 2.	

-----------------------------Solution composition------------------------------

	Elements           Molality       Moles

	C                 2.439e-04   2.439e-04
	Ca                1.000e-04   1.000e-04

----------------------------Description of solution----------------------------

                                       pH  =   7.000      Charge balance
                                       pe  =   4.000      Adjusted to redox equilibrium
      Specific Conductance (µS/cm,  25°C)  = 20
                          Density (g/cm³)  =   0.99706
                               Volume (L)  =   1.00297
                        Viscosity (mPa s)  =   0.89033
                        Activity of water  =   1.000
                 Ionic strength (mol/kgw)  =   3.002e-04
                       Mass of water (kg)  =   1.000e+00
                 Total alkalinity (eq/kg)  =   2.000e-04
                       Total CO2 (mol/kg)  =   2.439e-04
                         Temperature (°C)  =  25.00
                  Electrical balance (eq)  =  -1.300e-12
 Percent error, 100*(Cat-|An|)/(Cat+|An|)  =  -0.00
                               Iterations  =   0
                                  Total H  = 1.110126e+02
                                  Total O  = 5.550690e+01

----------------------------Distribution of species----------------------------

                                               Log       Log       Log    mole V
   Species          Molality    Activity  Molality  Activity     Gamma   cm³/mol

   OH-             1.033e-07   1.012e-07    -6.986    -6.995    -0.009     -4.12
   H+              1.020e-07   1.000e-07    -6.992    -7.000    -0.008      0.00
   H2O             5.551e+01   1.000e+00     1.744    -0.000     0.000     18.07
C(-4)         0.000e+00
   CH4             0.000e+00   0.000e+00   -67.966   -67.966     0.000     35.46
C(4)          2.439e-04
   HCO3-           1.998e-04   1.959e-04    -3.699    -3.708    -0.009     24.54
   CO2             4.404e-05   4.404e-05    -4.356    -4.356     0.000     34.79
   CO3-2           9.940e-08   9.186e-08    -7.003    -7.037    -0.034     -4.74
   CaCO3           1.426e-08   1.426e-08    -7.846    -7.846     0.000    -14.60
   (CO2)2          3.153e-11   3.153e-11   -10.501   -10.501     0.000     68.75
   CaHCO3+         1.618e-12   1.587e-12   -11.791   -11.800    -0.009      9.66
Ca            1.000e-04
   Ca+2            9.999e-05   9.239e-05    -4.000    -4.034    -0.034    -18.19
   CaCO3           1.426e-08   1.426e-08    -7.846    -7.846     0.000    -14.60
   CaOH+           1.564e-10   1.533e-10    -9.806    -9.814    -0.009     (0)  
   CaHCO3+         1.618e-12   1.587e-12   -11.791   -11.800    -0.009      9.66
H(0)          1.416e-25
   H2              7.079e-26   7.079e-26   -25.150   -25.150     0.000     14.99
O(0)          0.000e+00
   O2              0.000e+00   0.000e+00   -42.063   -42.063     0.000     30.40

------------------------------Saturation indices-------------------------------

  Phase               SI** log IAP   log K(298 K,   1 atm)

  Aragonite        -2.74    -11.07   -8.34  CaCO3
  Calcite          -2.62    -11.07   -8.45  CaCO3
  CH4(g)          -65.16    -67.97   -2.80  CH4
  CO2(g)           -2.89     -4.36   -1.47  CO2
  H2(g)           -22.05    -25.15   -3.10  H2
  H2O(g)           -1.50     -0.00    1.50  H2O
  O2(g)           -39.17    -42.06   -2.89  O2

**For a gas, SI = log10(fugacity). Fugacity = pressure * phi / 1 atm.
  For ideal gases, phi = 1.

Using solution 3.	

-----------------------------Solution composition------------------------------

	Elements           Molality       Moles

	C                 2.439e-04   2.439e-04
	Ca                1.000e-04   1.000e-04

----------------------------Description of solution----------------------------

                                       pH  =   7.000      Charge balance
                                       pe  =   4.000      Adjusted to redox equilibrium
      Specific Conductance (µS/cm,  25°C)  = 20
                          Density (g/cm³)  =   0.99706
                               Volume (L)  =   1.00297
                        Viscosity (mPa s)  =   0.89033
                        Activity of water  =   1.000
                 Ionic strength (mol/kgw)  =   3.002e-04
                       Mass of water (kg)  =   1.000e+00
                 Total alkalinity (eq/kg)  =   2.000e-04
                       Total CO2 (mol/kg)  =   2.439e-04
                         Temperature (°C)  =  25.00
                  Electrical balance (eq)  =  -1.300e-12
 Percent error, 100*(Cat-|An|)/(Cat+|An|)  =  -0.00
                               Iterations  =   0
                                  Total H  = 1.110126e+02
                                  Total O  = 5.550690e+01

----------------------------Distribution of species----------------------------

                                               Log       Log       Log    mole V
   Species          Molality    Activity  Molality  Activity     Gamma   cm³/mol

   OH-             1.033e-07   1.012e-07    -6.986    -6.995    -0.009     -4.12
   H+              1.020e-07   1.000e-07    -6.992    -7.000    -0.008      0.00
   H2O             5.551e+01   1.000e+00     1.744    -0.000     0.000     18.07
C(-4)         0.000e+00
   CH4             0.000e+00   0.000e+00   -67.966   -67.966     0.000     35.46
C(4)          2.439e-04
   HCO3-           1.998e-04   1.959e-04    -3.699    -3.708    -0.009     24.54
   CO2             4.404e-05   4.404e-05    -4.356    -4.356     0.000     34.79
   CO3-2           9.940e-08   9.186e-08    -7.003    -7.037    -0.034     -4.74
   CaCO3           1.426e-08   1.426e-08    -7.846    -7.846     0.000    -14.60
   (CO2)2          3.153e-11   3.153e-11   -10.501   -10.501     0.000     68.75
   CaHCO3+         1.618e-12   1.587e-12   -11.791   -11.800    -0.009      9.66
Ca            1.000e-04
   Ca+2            9.999e-05   9.239e-05    -4.000    -4.034    -0.034    -18.19
   CaCO3           1.426e-08   1.426e-08    -7.846    -7.846     0.000    -14.60
   CaOH+           1.564e-10   1.533e-10    -9.806    -9.814    -0.009     (0)  
   CaHCO3+         1.618e-12   1.587e-12   -11.791   -11.800    -0.009      9.66
H(0)          1.416e-25
   H2              7.079e-26   7.079e-26   -25.150   -25.150     0.000     14.99
O(0)          0.000e+00
   O2              0.000e+00   0.000e+00   -42.063   -42.063     0.000     30.40

------------------------------Saturation indices-------------------------------

  Phase               SI** log IAP   log K(298 K,   1 atm)

  Aragonite        -2.74    -11.07   -8.34  CaCO3
  Calcite          -2.62    -11.07   -8.45  CaCO3
  CH4(g)          -65.16    -67.97   -2.80  CH4
  CO2(g)           -2.89     -4.36   -1.47  CO2
  H2(g)           -22.05    -25.15   -3.10  H2
  H2O(g)           -1.50     -0.00    1.50  H2O
  O2(g)           -39.17    -42.06   -2.89  O2

**For a gas, SI = log10(fugacity). Fugacity = pressure * phi / 1 atm.
  For ideal gases, phi = 1.

Using solution 4.	

-----------------------------Solution composition------------------------------

	Elements           Molality       Moles

	C                 2.439e-04   2.439e-04
	Ca                1.000e-04   1.000e-04

----------------------------Description of solution----------------------------

                                       pH  =   7.000      Charge balance
                                       pe  =   4.000      Adjusted to redox equilibrium
      Specific Conductance (µS/cm,  25°C)  = 20
                          Density (g/cm³)  =   0.99706
                               Volume (L)  =   1.00297
                        Viscosity (mPa s)  =   0.89033
                        Activity of water  =   1.000
                 Ionic strength (mol/kgw)  =   3.002e-04
                       Mass of water (kg)  =   1.000e+00
                 Total alkalinity (eq/kg)  =   2.000e-04
                       Total CO2 (mol/kg)  =   2.439e-04
                         Temperature (°C)  =  25.00
                  Electrical balance (eq)  =  -1.300e-12
 Percent error, 100*(Cat-|An|)/(Cat+|An|)  =  -0.00
                               Iterations  =   0
                                  Total H  = 1.110126e+02
                                  Total O  = 5.550690e+01

----------------------------Distribution of species----------------------------

                                               Log       Log       Log    mole V
   Species          Molality    Activity  Molality  Activity     Gamma   cm³/mol

   OH-             1.033e-07   1.012e-07    -6.986    -6.995    -0.009     -4.12
   H+              1.020e-07   1.000e-07    -6.992    -7.000    -0.008      0.00
   H2O             5.551e+01   1.000e+00     1.744    -0.000     0.000     18.07
C(-4)         0.000e+00
   CH4             0.000e+00   0.000e+00   -67.966   -67.966     0.000     35.46
C(4)          2.439e-04
   HCO3-           1.998e-04   1.959e-04    -3.699    -3.708    -0.009     24.54
   CO2             4.404e-05   4.404e-05    -4.356    -4.356     0.000     34.79
   CO3-2           9.940e-08   9.186e-08    -7.003    -7.037    -0.034     -4.74
   CaCO3           1.426e-08   1.426e-08    -7.846    -7.846     0.000    -14.60
   (CO2)2          3.153e-11   3.153e-11   -10.501   -10.501     0.000     68.75
   CaHCO3+         1.618e-12   1.587e-12   -11.791   -11.800    -0.009      9.66
Ca            1.000e-04
   Ca+2            9.999e-05   9.239e-05    -4.000    -4.034    -0.034    -18.19
   CaCO3           1.426e-08   1.426e-08    -7.846    -7.846     0.000    -14.60
   CaOH+           1.564e-10   1.533e-10    -9.806    -9.814    -0.009     (0)  
   CaHCO3+         1.618e-12   1.587e-12   -11.791   -11.800    -0.009      9.66
H(0)          1.416e-25
   H2              7.079e-26   7.079e-26   -25.150   -25.150     0.000     14.99
O(0)          0.000e+00
   O2              0.000e+00   0.000e+00   -42.063   -42.063     0.000     30.40

------------------------------Saturation indices-------------------------------

  Phase               SI** log IAP   log K(298 K,   1 atm)

  Aragonite        -2.74    -11.07   -8.34  CaCO3
  Calcite          -2.62    -11.07   -8.45  CaCO3
  CH4(g)          -65.16    -67.97   -2.80  CH4
  CO2(g)           -2.89     -4.36   -1.47  CO2
  H2(g)           -22.05    -25.15   -3.10  H2
  H2O(g)           -1.50     -0.00    1.50  H2O
  O2(g)           -39.17    -42.06   -2.89  O2

**For a gas, SI = log10(fugacity). Fugacity = pressure * phi / 1 atm.
  For ideal gases, phi = 1.

Using solution 5.	

-----------------------------Solution composition------------------------------

	Elements           Molality       Moles

	C                 2.439e-04   2.439e-04
	Ca                1.000e-04   1.000e-04

----------------------------Description of solution----------------------------

                                       pH  =   7.000      Charge balance
                                       pe  =   4.000      Adjusted to redox equilibrium
      Specific Conductance (µS/cm,  25°C)  = 20
                          Density (g/cm³)  =   0.99706
                               Volume (L)  =   1.00297
                        Viscosity (mPa s)  =   0.89033
                        Activity of water  =   1.000
                 Ionic strength (mol/kgw)  =   3.002e-04
                       Mass of water (kg)  =   1.000e+00
                 Total alkalinity (eq/kg)  =   2.000e-04
                       Total CO2 (mol/kg)  =   2.439e-04
                         Temperature (°C)  =  25.00
                  Electrical balance (eq)  =  -1.300e-12
 Percent error, 100*(Cat-|An|)/(Cat+|An|)  =  -0.00
                               Iterations  =   0
                                  Total H  = 1.110126e+02
                                  Total O  = 5.550690e+01

----------------------------Distribution of species----------------------------

                                               Log       Log       Log    mole V
   Species          Molality    Activity  Molality  Activity     Gamma   cm³/mol

   OH-             1.033e-07   1.012e-07    -6.986    -6.995    -0.009     -4.12
   H+              1.020e-07   1.000e-07    -6.992    -7.000    -0.008      0.00
   H2O             5.551e+01   1.000e+00     1.744    -0.000     0.000     18.07
C(-4)         0.000e+00
   CH4             0.000e+00   0.000e+00   -67.966   -67.966     0.000     35.46
C(4)          2.439e-04
   HCO3-           1.998e-04   1.959e-04    -3.699    -3.708    -0.009     24.54
   CO2             4.404e-05   4.404e-05    -4.356    -4.356     0.000     34.79
   CO3-2           9.940e-08   9.186e-08    -7.003    -7.037    -0.034     -4.74
   CaCO3           1.426e-08   1.426e-08    -7.846    -7.846     0.000    -14.60
   (CO2)2          3.153e-11   3.153e-11   -10.501   -10.501     0.000     68.75
   CaHCO3+         1.618e-12   1.587e-12   -11.791   -11.800    -0.009      9.66
Ca            1.000e-04
   Ca+2            9.999e-05   9.239e-05    -4.000    -4.034    -0.034    -18.19
   CaCO3           1.426e-08   1.426e-08    -7.846    -7.846     0.000    -14.60
   CaOH+           1.564e-10   1.533e-10    -9.806    -9.814    -0.009     (0)  
   CaHCO3+         1.618e-12   1.587e-12   -11.791   -11.800    -0.009      9.66
H(0)          1.416e-25
   H2              7.079e-26   7.079e-26   -25.150   -25.150     0.000     14.99
O(0)          0.000e+00
   O2              0.000e+00   0.000e+00   -42.063   -42.063     0.000     30.40

------------------------------Saturation indices-------------------------------

  Phase               SI** log IAP   log K(298 K,   1 atm)

  Aragonite        -2.74    -11.07   -8.34  CaCO3
  Calcite          -2.62    -11.07   -8.45  CaCO3
  CH4(g)          -65.16    -67.97   -2.80  CH4
  CO2(g)           -2.89     -4.36   -1.47  CO2
  H2(g)           -22.05    -25.15   -3.10  H2
  H2O(g)           -1.50     -0.00    1.50  H2O
  O2(g)           -39.17    -42.06   -2.89  O2

**For a gas, SI = log10(fugacity). Fugacity = pressure * phi / 1 atm.
  For ideal gases, phi = 1.

Using solution 6.	

-----------------------------Solution composition------------------------------

	Elements           Molality       Moles

	C                 2.439e-04   2.439e-04
	Ca                1.000e-04   1.000e-04

----------------------------Description of solution----------------------------

                                       pH  =   7.000      Charge balance
                                       pe  =   4.000      Adjusted to redox equilibrium
      Specific Conductance (µS/cm,  25°C)  = 20
                          Density (g/cm³)  =   0.99706
                               Volume (L)  =   1.00297
                        Viscosity (mPa s)  =   0.89033
                        Activity of water  =   1.000
                 Ionic strength (mol/kgw)  =   3.002e-04
                       Mass of water (kg)  =   1.000e+00
                 Total alkalinity (eq/kg)  =   2.000e-04
                       Total CO2 (mol/kg)  =   2.439e-04
                         Temperature (°C)  =  25.00
                  Electrical balance (eq)  =  -1.300e-12
 Percent error, 100*(Cat-|An|)/(Cat+|An|)  =  -0.00
                               Iterations  =   0
                                  Total H  = 1.110126e+02
                                  Total O  = 5.550690e+01

----------------------------Distribution of species----------------------------

                                               Log       Log       Log    mole V
   Species          Molality    Activity  Molality  Activity     Gamma   cm³/mol

   OH-             1.033e-07   1.012e-07    -6.986    -6.995    -0.009     -4.12
   H+              1.020e-07   1.000e-07    -6.992    -7.000    -0.008      0.00
   H2O             5.551e+01   1.000e+00     1.744    -0.000     0.000     18.07
C(-4)         0.000e+00
   CH4             0.000e+00   0.000e+00   -67.966   -67.966     0.000     35.46
C(4)          2.439e-04
   HCO3-           1.998e-04   1.959e-04    -3.699    -3.708    -0.009     24.54
   CO2             4.404e-05   4.404e-05    -4.356    -4.356     0.000     34.79
   CO3-2           9.940e-08   9.186e-08    -7.003    -7.037    -0.034     -4.74
   CaCO3           1.426e-08   1.426e-08    -7.846    -7.846     0.000    -14.60
   (CO2)2          3.153e-11   3.153e-11   -10.501   -10.501     0.000     68.75
   CaHCO3+         1.618e-12   1.587e-12   -11.791   -11.800    -0.009      9.66
Ca            1.000e-04
   Ca+2            9.999e-05   9.239e-05    -4.000    -4.034    -0.034    -18.19
   CaCO3           1.426e-08   1.426e-08    -7.846    -7.846     0.000    -14.60
   CaOH+           1.564e-10   1.533e-10    -9.806    -9.814    -0.009     (0)  
   CaHCO3+         1.618e-12   1.587e-12   -11.791   -11.800    -0.009      9.66
H(0)          1.416e-25
   H2              7.079e-26   7.079e-26   -25.150   -25.150     0.000     14.99
O(0)          0.000e+00
   O2              0.000e+00   0.000e+00   -42.063   -42.063     0.000     30.40

------------------------------Saturation indices-------------------------------

  Phase               SI** log IAP   log K(298 K,   1 atm)

  Aragonite        -2.74    -11.07   -8.34  CaCO3
  Calcite          -2.62    -11.07   -8.45  CaCO3
  CH4(g)          -65.16    -67.97   -2.80  CH4
  CO2(g)           -2.89     -4.36   -1.47  CO2
  H2(g)           -22.05    -25.15   -3.10  H2
  H2O(g)           -1.50     -0.00    1.50  H2O
  O2(g)           -39.17    -42.06   -2.89  O2

**For a gas, SI = log10(fugacity). Fugacity = pressure * phi / 1 atm.
  For ideal gases, phi = 1.

Using solution 7.	

-----------------------------Solution composition------------------------------

	Elements           Molality       Moles

	C                 2.439e-04   2.439e-04
	Ca                1.000e-04   1.000e-04

----------------------------Description of solution----------------------------

                                       pH  =   7.000      Charge balance
                                       pe  =   4.000      Adjusted to redox equilibrium
      Specific Conductance (µS/cm,  25°C)  = 20
                          Density (g/cm³)  =   0.99706
                               Volume (L)  =   1.00297
                        Viscosity (mPa s)  =   0.89033
                        Activity of water  =   1.000
                 Ionic strength (mol/kgw)  =   3.002e-04
                       Mass of water (kg)  =   1.000e+00
                 Total alkalinity (eq/kg)  =   2.000e-04
                       Total CO2 (mol/kg)  =   2.439e-04
                         Temperature (°C)  =  25.00
                  Electrical balance (eq)  =  -1.300e-12
 Percent error, 100*(Cat-|An|)/(Cat+|An|)  =  -0.00
                               Iterations  =   0
                                  Total H  = 1.110126e+02
                                  Total O  = 5.550690e+01

----------------------------Distribution of species----------------------------

                                               Log       Log       Log    mole V
   Species          Molality    Activity  Molality  Activity     Gamma   cm³/mol

   OH-             1.033e-07   1.012e-07    -6.986    -6.995    -0.009     -4.12
   H+              1.020e-07   1.000e-07    -6.992    -7.000    -0.008      0.00
   H2O             5.551e+01   1.000e+00     1.744    -0.000     0.000     18.07
C(-4)         0.000e+00
   CH4             0.000e+00   0.000e+00   -67.966   -67.966     0.000     35.46
C(4)          2.439e-04
   HCO3-           1.998e-04   1.959e-04    -3.699    -3.708    -0.009     24.54
   CO2             4.404e-05   4.404e-05    -4.356    -4.356     0.000     34.79
   CO3-2           9.940e-08   9.186e-08    -7.003    -7.037    -0.034     -4.74
   CaCO3           1.426e-08   1.426e-08    -7.846    -7.846     0.000    -14.60
   (CO2)2          3.153e-11   3.153e-11   -10.501   -10.501     0.000     68.75
   CaHCO3+         1.618e-12   1.587e-12   -11.791   -11.800    -0.009      9.66
Ca            1.000e-04
   Ca+2            9.999e-05   9.239e-05    -4.000    -4.034    -0.034    -18.19
   CaCO3           1.426e-08   1.426e-08    -7.846    -7.846     0.000    -14.60
   CaOH+           1.564e-10   1.533e-10    -9.806    -9.814    -0.009     (0)  
   CaHCO3+         1.618e-12   1.587e-12   -11.791   -11.800    -0.009      9.66
H(0)          1.416e-25
   H2              7.079e-26   7.079e-26   -25.150   -25.150     0.000     14.99
O(0)          0.000e+00
   O2              0.000e+00   0.000e+00   -42.063   -42.063     0.000     30.40

------------------------------Saturation indices-------------------------------

  Phase               SI** log IAP   log K(298 K,   1 atm)

  Aragonite        -2.74    -11.07   -8.34  CaCO3
  Calcite          -2.62    -11.07   -8.45  CaCO3
  CH4(g)          -65.16    -67.97   -2.80  CH4
  CO2(g)           -2.89     -4.36   -1.47  CO2
  H2(g)           -22.05    -25.15   -3.10  H2
  H2O(g)           -1.50     -0.00    1.50  H2O
  O2(g)           -39.17    -42.06   -2.89  O2

**For a gas, SI = log10(fugacity). Fugacity = pressure * phi / 1 atm.
  For ideal gases, phi = 1.

Using solution 8.	

-----------------------------Solution composition------------------------------

	Elements           Molality       Moles

	C                 2.439e-04   2.439e-04
	Ca                1.000e-04   1.000e-04

----------------------------Description of solution----------------------------

                                       pH  =   7.000      Charge balance
                                       pe  =   4.000      Adjusted to redox equilibrium
      Specific Conductance (µS/cm,  25°C)  = 20
                          Density (g/cm³)  =   0.99706
                               Volume (L)  =   1.00297
                        Viscosity (mPa s)  =   0.89033
                        Activity of water  =   1.000
                 Ionic strength (mol/kgw)  =   3.002e-04
                       Mass of water (kg)  =   1.000e+00
                 Total alkalinity (eq/kg)  =   2.000e-04
                       Total CO2 (mol/kg)  =   2.439e-04
                         Temperature (°C)  =  25.00
                  Electrical balance (eq)  =  -1.300e-12
 Percent error, 100*(Cat-|An|)/(Cat+|An|)  =  -0.00
                               Iterations  =   0
                                  Total H  = 1.110126e+02
                                  Total O  = 5.550690e+01

----------------------------Distribution of species----------------------------

                                               Log       Log       Log    mole V
   Species          Molality    Activity  Molality  Activity     Gamma   cm³/mol

   OH-             1.033e-07   1.012e-07    -6.986    -6.995    -0.009     -4.12
   H+              1.020e-07   1.000e-07    -6.992    -7.000    -0.008      0.00
   H2O             5.551e+01   1.000e+00     1.744    -0.000     0.000     18.07
C(-4)         0.000e+00
   CH4             0.000e+00   0.000e+00   -67.966   -67.966     0.000     35.46
C(4)          2.439e-04
   HCO3-           1.998e-04   1.959e-04    -3.699    -3.708    -0.009     24.54
   CO2             4.404e-05   4.404e-05    -4.356    -4.356     0.000     34.79
   CO3-2           9.940e-08   9.186e-08    -7.003    -7.037    -0.034     -4.74
   CaCO3           1.426e-08   1.426e-08    -7.846    -7.846     0.000    -14.60
   (CO2)2          3.153e-11   3.153e-11   -10.501   -10.501     0.000     68.75
   CaHCO3+         1.618e-12   1.587e-12   -11.791   -11.800    -0.009      9.66
Ca            1.000e-04
   Ca+2            9.999e-05   9.239e-05    -4.000    -4.034    -0.034    -18.19
   CaCO3           1.426e-08   1.426e-08    -7.846    -7.846     0.000    -14.60
   CaOH+           1.564e-10   1.533e-10    -9.806    -9.814    -0.009     (0)  
   CaHCO3+         1.618e-12   1.587e-12   -11.791   -11.800    -0.009      9.66
H(0)          1.416e-25
   H2              7.079e-26   7.079e-26   -25.150   -25.150     0.000     14.99
O(0)          0.000e+00
   O2              0.000e+00   0.000e+00   -42.063   -42.063     0.000     30.40

------------------------------Saturation indices-------------------------------

  Phase               SI** log IAP   log K(298 K,   1 atm)

  Aragonite        -2.74    -11.07   -8.34  CaCO3
  Calcite          -2.62    -11.07   -8.45  CaCO3
  CH4(g)          -65.16    -67.97   -2.80  CH4
  CO2(g)           -2.89     -4.36   -1.47  CO2
  H2(g)           -22.05    -25.15   -3.10  H2
  H2O(g)           -1.50     -0.00    1.50  H2O
  O2(g)           -39.17    -42.06   -2.89  O2

**For a gas, SI = log10(fugacity). Fugacity = pressure * phi / 1 atm.
  For ideal gases, phi = 1.

Using solution 9.	

-----------------------------Solution composition------------------------------

	Elements           Molality       Moles

	C                 2.439e-04   2.439e-04
	Ca                1.000e-04   1.000e-04

----------------------------Description of solution----------------------------

                                       pH  =   7.000      Charge balance
                                       pe  =   4.000      Adjusted to redox equilibrium
      Specific Conductance (µS/cm,  25°C)  = 20
                          Density (g/cm³)  =   0.99706
                               Volume (L)  =   1.00297
                        Viscosity (mPa s)  =   0.89033
                        Activity of water  =   1.000
                 Ionic strength (mol/kgw)  =   3.002e-04
                       Mass of water (kg)  =   1.000e+00
                 Total alkalinity (eq/kg)  =   2.000e-04
                       Total CO2 (mol/kg)  =   2.439e-04
                         Temperature (°C)  =  25.00
                  Electrical balance (eq)  =  -1.300e-12
 Percent error, 100*(Cat-|An|)/(Cat+|An|)  =  -0.00
                               Iterations  =   0
                                  Total H  = 1.110126e+02
                                  Total O  = 5.550690e+01

----------------------------Distribution of species----------------------------

                                               Log       Log       Log    mole V
   Species          Molality    Activity  Molality  Activity     Gamma   cm³/mol

   OH-             1.033e-07   1.012e-07    -6.986    -6.995    -0.009     -4.12
   H+              1.020e-07   1.000e-07    -6.992    -7.000    -0.008      0.00
   H2O             5.551e+01   1.000e+00     1.744    -0.000     0.000     18.07
C(-4)         0.000e+00
   CH4             0.000e+00   0.000e+00   -67.966   -67.966     0.000     35.46
C(4)          2.439e-04
   HCO3-           1.998e-04   1.959e-04    -3.699    -3.708    -0.009     24.54
   CO2             4.404e-05   4.404e-05    -4.356    -4.356     0.000     34.79
   CO3-2           9.940e-08   9.186e-08    -7.003    -7.037    -0.034     -4.74
   CaCO3           1.426e-08   1.426e-08    -7.846    -7.846     0.000    -14.60
   (CO2)2          3.153e-11   3.153e-11   -10.501   -10.501     0.000     68.75
   CaHCO3+         1.618e-12   1.587e-12   -11.791   -11.800    -0.009      9.66
Ca            1.000e-04
   Ca+2            9.999e-05   9.239e-05    -4.000    -4.034    -0.034    -18.19
   CaCO3           1.426e-08   1.426e-08    -7.846    -7.846     0.000    -14.60
   CaOH+           1.564e-10   1.533e-10    -9.806    -9.814    -0.009     (0)  
   CaHCO3+         1.618e-12   1.587e-12   -11.791   -11.800    -0.009      9.66
H(0)          1.416e-25
   H2              7.079e-26   7.079e-26   -25.150   -25.150     0.000     14.99
O(0)          0.000e+00
   O2              0.000e+00   0.000e+00   -42.063   -42.063     0.000     30.40

------------------------------Saturation indices-------------------------------

  Phase               SI** log IAP   log K(298 K,   1 atm)

  Aragonite        -2.74    -11.07   -8.34  CaCO3
  Calcite          -2.62    -11.07   -8.45  CaCO3
  CH4(g)          -65.16    -67.97   -2.80  CH4
  CO2(g)           -2.89     -4.36   -1.47  CO2
  H2(g)           -22.05    -25.15   -3.10  H2
  H2O(g)           -1.50     -0.00    1.50  H2O
  O2(g)           -39.17    -42.06   -2.89  O2

**For a gas, SI = log10(fugacity). Fugacity = pressure * phi / 1 atm.
  For ideal gases, phi = 1.

Using solution 10.	

-----------------------------Solution composition------------------------------

	Elements           Molality       Moles

	C                 2.439e-04   2.439e-04
	Ca                1.000e-04   1.000e-04

----------------------------Description of solution----------------------------

                                       pH  =   7.000      Charge balance
                                       pe  =   4.000      Adjusted to redox equilibrium
      Specific Conductance (µS/cm,  25°C)  = 20
                          Density (g/cm³)  =   0.99706
                               Volume (L)  =   1.00297
                        Viscosity (mPa s)  =   0.89033
                        Activity of water  =   1.000
                 Ionic strength (mol/kgw)  =   3.002e-04
                       Mass of water (kg)  =   1.000e+00
                 Total alkalinity (eq/kg)  =   2.000e-04
                       Total CO2 (mol/kg)  =   2.439e-04
                         Temperature (°C)  =  25.00
                  Electrical balance (eq)  =  -1.300e-12
 Percent error, 100*(Cat-|An|)/(Cat+|An|)  =  -0.00
                               Iterations  =   0
                                  Total H  = 1.110126e+02
                                  Total O  = 5.550690e+01

----------------------------Distribution of species----------------------------

                                               Log       Log       Log    mole V
   Species          Molality    Activity  Molality  Activity     Gamma   cm³/mol

   OH-             1.033e-07   1.012e-07    -6.986    -6.995    -0.009     -4.12
   H+              1.020e-07   1.000e-07    -6.992    -7.000    -0.008      0.00
   H2O             5.551e+01   1.000e+00     1.744    -0.000     0.000     18.07
C(-4)         0.000e+00
   CH4             0.000e+00   0.000e+00   -67.966   -67.966     0.000     35.46
C(4)          2.439e-04
   HCO3-           1.998e-04   1.959e-04    -3.699    -3.708    -0.009     24.54
   CO2             4.404e-05   4.404e-05    -4.356    -4.356     0.000     34.79
   CO3-2           9.940e-08   9.186e-08    -7.003    -7.037    -0.034     -4.74
   CaCO3           1.426e-08   1.426e-08    -7.846    -7.846     0.000    -14.60
   (CO2)2          3.153e-11   3.153e-11   -10.501   -10.501     0.000     68.75
   CaHCO3+         1.618e-12   1.587e-12   -11.791   -11.800    -0.009      9.66
Ca            1.000e-04
   Ca+2            9.999e-05   9.239e-05    -4.000    -4.034    -0.034    -18.19
   CaCO3           1.426e-08   1.426e-08    -7.846    -7.846     0.000    -14.60
   CaOH+           1.564e-10   1.533e-10    -9.806    -9.814    -0.009     (0)  
   CaHCO3+         1.618e-12   1.587e-12   -11.791   -11.800    -0.009      9.66
H(0)          1.416e-25
   H2              7.079e-26   7.079e-26   -25.150   -25.150     0.000     14.99
O(0)          0.000e+00
   O2              0.000e+00   0.000e+00   -42.063   -42.063     0.000     30.40

------------------------------Saturation indices-------------------------------

  Phase               SI** log IAP   log K(298 K,   1 atm)

  Aragonite        -2.74    -11.07   -8.34  CaCO3
  Calcite          -2.62    -11.07   -8.45  CaCO3
  CH4(g)          -65.16    -67.97   -2.80  CH4
  CO2(g)           -2.89     -4.36   -1.47  CO2
  H2(g)           -22.05    -25.15   -3.10  H2
  H2O(g)           -1.50     -0.00    1.50  H2O
  O2(g)           -39.17    -42.06   -2.89  O2

**For a gas, SI = log10(fugacity). Fugacity = pressure * phi / 1 atm.
  For ideal gases, phi = 1.


Calculating transport: 10 (mobile) cells, 1 shifts, 21 mixruns...

Transport step   1. Multicomponent diffusion run  21.

Using solution 0.	Solution after simulation 2.

-----------------------------Solution composition------------------------------

	Elements           Molality       Moles

	Cl                1.000e-01   1.000e-01
	Na                1.000e-01   1.000e-01

----------------------------Description of solution----------------------------

                                       pH  =   7.000      Charge balance
                                       pe  =   4.000      Adjusted to redox equilibrium
      Specific Conductance (µS/cm,  25°C)  = 10609
                          Density (g/cm³)  =   1.00115
                               Volume (L)  =   1.00469
                        Viscosity (mPa s)  =   0.89854
                        Activity of water  =   0.997
                 Ionic strength (mol/kgw)  =   1.000e-01
                       Mass of water (kg)  =   1.000e+00
                 Total alkalinity (eq/kg)  =   8.896e-09
                         Temperature (°C)  =  25.00
                  Electrical balance (eq)  =  -1.252e-15
 Percent error, 100*(Cat-|An|)/(Cat+|An|)  =  -0.00
                               Iterations  =   0
                                  Total H  = 1.110124e+02
                                  Total O  = 5.550622e+01

----------------------------Distribution of species----------------------------

                                               Log       Log       Log    mole V
   Species          Molality    Activity  Molality  Activity     Gamma   cm³/mol

   OH-             1.324e-07   1.009e-07    -6.878    -6.996    -0.118     -3.73
   H+              1.212e-07   1.000e-07    -6.917    -7.000    -0.083      0.00
   H2O             5.551e+01   9.966e-01     1.744    -0.001     0.000     18.07
Cl            1.000e-01
   Cl-             1.000e-01   7.666e-02    -1.000    -1.115    -0.115     18.34
   HCl             2.394e-09   2.641e-09    -8.621    -8.578     0.043     20.36
H(0)          1.382e-25
   H2              6.910e-26   7.079e-26   -25.161   -25.150     0.011     14.99
Na            1.000e-01
   Na+             1.000e-01   7.851e-02    -1.000    -1.105    -0.105     -1.09
O(0)          0.000e+00
   O2              0.000e+00   0.000e+00   -42.076   -42.066     0.010     30.40

------------------------------Saturation indices-------------------------------

  Phase               SI** log IAP   log K(298 K,   1 atm)

  H2(g)           -22.05    -25.15   -3.10  H2
  H2O(g)           -1.50     -0.00    1.50  H2O
  Halite           -3.79     -2.22    1.57  NaCl
  O2(g)           -39.17    -42.07   -2.89  O2

**For a gas, SI = log10(fugacity). Fugacity = pressure * phi / 1 atm.
  For ideal gases, phi = 1.

Using mix 1.	

Mixture 1.	

	  0.000e+00 Solution 0	Solution after simulation 2.                           
	  1.000e+00 Solution 1	Solution after simulation 2.                           
	  0.000e+00 Solution 2	Solution after simulation 2.                           

-----------------------------Solution composition------------------------------

	Elements           Molality       Moles

	C                 1.060e-04   1.060e-04
	Ca                5.068e-05   5.068e-05
	Cl                6.374e-02   6.374e-02
	Na                6.374e-02   6.374e-02

----------------------------Description of solution----------------------------

                                       pH  =   7.079      Charge balance
                                       pe  =  11.306      Adjusted to redox equilibrium
      Specific Conductance (µS/cm,  25°C)  = 6956
                          Density (g/cm³)  =   0.99968
                               Volume (L)  =   1.00406
                        Viscosity (mPa s)  =   0.89573
                        Activity of water  =   0.998
                 Ionic strength (mol/kgw)  =   6.389e-02
                       Mass of water (kg)  =   1.000e+00
                 Total alkalinity (eq/kg)  =   9.245e-05
                       Total CO2 (mol/kg)  =   1.060e-04
                         Temperature (°C)  =  25.00
                  Electrical balance (eq)  =  -2.247e-13
 Percent error, 100*(Cat-|An|)/(Cat+|An|)  =  -0.00
                               Iterations  =   3
                                  Total H  = 1.110125e+02
                                  Total O  = 5.550652e+01

----------------------------Distribution of species----------------------------

                                               Log       Log       Log    mole V
   Species          Molality    Activity  Molality  Activity     Gamma   cm³/mol

   OH-             1.524e-07   1.211e-07    -6.817    -6.917    -0.100     -3.83
   H+              9.882e-08   8.338e-08    -7.005    -7.079    -0.074      0.00
   H2O             5.551e+01   9.978e-01     1.744    -0.001     0.000     18.07
C(-4)         0.000e+00
   CH4             0.000e+00   0.000e+00  -127.552  -127.546     0.006     35.46
C(4)          1.060e-04
   HCO3-           9.036e-05   7.370e-05    -4.044    -4.133    -0.089     25.15
   CO2             1.371e-05   1.385e-05    -4.863    -4.859     0.004     34.79
   NaHCO3          1.841e-06   1.883e-06    -5.735    -5.725     0.010     17.66
   CO3-2           9.409e-08   4.145e-08    -7.026    -7.382    -0.356     -3.59
   CaCO3           1.539e-09   1.562e-09    -8.813    -8.806     0.006    -14.60
   (CO2)2          3.087e-12   3.117e-12   -11.510   -11.506     0.004     68.75
   CaHCO3+         1.767e-13   1.450e-13   -12.753   -12.839    -0.086      9.81
Ca            5.068e-05
   Ca+2            5.067e-05   2.244e-05    -4.295    -4.649    -0.354    -17.56
   CaCO3           1.539e-09   1.562e-09    -8.813    -8.806     0.006    -14.60
   CaOH+           5.521e-11   4.456e-11   -10.258   -10.351    -0.093     (0)  
   CaHCO3+         1.767e-13   1.450e-13   -12.753   -12.839    -0.086      9.81
Cl            6.374e-02
   Cl-             6.374e-02   5.087e-02    -1.196    -1.294    -0.098     18.28
   HCl             1.373e-09   1.461e-09    -8.862    -8.835     0.027     20.36
H(0)          2.368e-40
   H2              1.184e-40   1.203e-40   -39.927   -39.920     0.007     14.99
Na            6.374e-02
   Na+             6.373e-02   5.168e-02    -1.196    -1.287    -0.091     -1.17
   NaHCO3          1.841e-06   1.883e-06    -5.735    -5.725     0.010     17.66
O(0)          5.888e-13
   O2              2.944e-13   2.988e-13   -12.531   -12.525     0.006     30.40

------------------------------Saturation indices-------------------------------

  Phase               SI** log IAP   log K(298 K,   1 atm)

  Aragonite        -3.70    -12.03   -8.34  CaCO3
  Calcite          -3.58    -12.03   -8.45  CaCO3
  CH4(g)         -124.74   -127.55   -2.80  CH4
  CO2(g)           -3.39     -4.86   -1.47  CO2
  H2(g)           -36.82    -39.92   -3.10  H2
  H2O(g)           -1.50     -0.00    1.50  H2O
  Halite           -4.15     -2.58    1.57  NaCl
  O2(g)            -9.63    -12.52   -2.89  O2

**For a gas, SI = log10(fugacity). Fugacity = pressure * phi / 1 atm.
  For ideal gases, phi = 1.

Using mix 2.	

Mixture 2.	

	  0.000e+00 Solution 1	Solution after simulation 2.                           
	  1.000e+00 Solution 2	Solution after simulation 2.                           
	  0.000e+00 Solution 3	Solution after simulation 2.                           

-----------------------------Solution composition------------------------------

	Elements           Molality       Moles

	C                 2.047e-04   2.047e-04
	Ca                8.486e-05   8.486e-05
	Cl                1.966e-02   1.966e-02
	Na                1.966e-02   1.966e-02

----------------------------Description of solution----------------------------

                                       pH  =   7.008      Charge balance
                                       pe  =  11.500      Adjusted to redox equilibrium
      Specific Conductance (µS/cm,  25°C)  = 2279
                          Density (g/cm³)  =   0.99787
                               Volume (L)  =   1.00330
                        Viscosity (mPa s)  =   0.89216
                        Activity of water  =   0.999
                 Ionic strength (mol/kgw)  =   1.991e-02
                       Mass of water (kg)  =   1.000e+00
                 Total alkalinity (eq/kg)  =   1.720e-04
                       Total CO2 (mol/kg)  =   2.047e-04
                         Temperature (°C)  =  25.00
                  Electrical balance (eq)  =  -1.325e-13
 Percent error, 100*(Cat-|An|)/(Cat+|An|)  =  -0.00
                               Iterations  =   3
                                  Total H  = 1.110126e+02
                                  Total O  = 5.550680e+01

----------------------------Distribution of species----------------------------

                                               Log       Log       Log    mole V
   Species          Molality    Activity  Molality  Activity     Gamma   cm³/mol

   OH-             1.189e-07   1.031e-07    -6.925    -6.987    -0.062     -3.98
   H+              1.103e-07   9.812e-08    -6.957    -7.008    -0.051      0.00
   H2O             5.551e+01   9.993e-01     1.744    -0.000     0.000     18.07
C(-4)         0.000e+00
   CH4             0.000e+00   0.000e+00  -128.160  -128.158     0.002     35.46
C(4)          2.047e-04
   HCO3-           1.705e-04   1.494e-04    -3.768    -3.826    -0.057     24.81
   CO2             3.288e-05   3.298e-05    -4.483    -4.482     0.001     34.79
   NaHCO3          1.259e-06   1.267e-06    -5.900    -5.897     0.003     17.66
   CO3-2           1.213e-07   7.139e-08    -6.916    -7.146    -0.230     -4.15
   CaCO3           5.959e-09   5.987e-09    -8.225    -8.223     0.002    -14.60
   (CO2)2          1.763e-11   1.768e-11   -10.754   -10.753     0.001     68.75
   CaHCO3+         7.443e-13   6.537e-13   -12.128   -12.185    -0.056      9.75
Ca            8.486e-05
   Ca+2            8.486e-05   4.992e-05    -4.071    -4.302    -0.230    -17.82
   CaCO3           5.959e-09   5.987e-09    -8.225    -8.223     0.002    -14.60
   CaOH+           9.687e-11   8.437e-11   -10.014   -10.074    -0.060     (0)  
   CaHCO3+         7.443e-13   6.537e-13   -12.128   -12.185    -0.056      9.75
Cl            1.966e-02
   Cl-             1.966e-02   1.707e-02    -1.706    -1.768    -0.061     18.18
   HCl             5.659e-10   5.771e-10    -9.247    -9.239     0.008     20.36
H(0)          0.000e+00
   H2              0.000e+00   0.000e+00   -40.169   -40.167     0.002     14.99
Na            1.966e-02
   Na+             1.966e-02   1.717e-02    -1.706    -1.765    -0.059     -1.32
   NaHCO3          1.259e-06   1.267e-06    -5.900    -5.897     0.003     17.66
O(0)          1.859e-12
   O2              9.297e-13   9.340e-13   -12.032   -12.030     0.002     30.40

------------------------------Saturation indices-------------------------------

  Phase               SI** log IAP   log K(298 K,   1 atm)

  Aragonite        -3.11    -11.45   -8.34  CaCO3
  Calcite          -3.00    -11.45   -8.45  CaCO3
  CH4(g)         -125.36   -128.16   -2.80  CH4
  CO2(g)           -3.01     -4.48   -1.47  CO2
  H2(g)           -37.07    -40.17   -3.10  H2
  H2O(g)           -1.50     -0.00    1.50  H2O
  Halite           -5.10     -3.53    1.57  NaCl
  O2(g)            -9.14    -12.03   -2.89  O2

**For a gas, SI = log10(fugacity). Fugacity = pressure * phi / 1 atm.
  For ideal gases, phi = 1.

Using mix 3.	

Mixture 3.	

	  0.000e+00 Solution 2	Solution after simulation 2.                           
	  1.000e+00 Solution 3	Solution after simulation 2.                           
	  0.000e+00 Solution 4	Solution after simulation 2.                           

-----------------------------Solution composition------------------------------

	Elements           Molality       Moles

	C                 2.276e-04   2.276e-04
	Ca                1.024e-04   1.024e-04
	Cl                4.394e-03   4.394e-03
	Na                4.376e-03   4.376e-03

----------------------------Description of solution----------------------------

                                       pH  =   6.976      Charge balance
                                       pe  =  11.595      Adjusted to redox equilibrium
      Specific Conductance (µS/cm,  25°C)  = 546
                          Density (g/cm³)  =   0.99724
                               Volume (L)  =   1.00304
                        Viscosity (mPa s)  =   0.89075
                        Activity of water  =   1.000
                 Ionic strength (mol/kgw)  =   4.683e-03
                       Mass of water (kg)  =   1.000e+00
                 Total alkalinity (eq/kg)  =   1.866e-04
                       Total CO2 (mol/kg)  =   2.276e-04
                         Temperature (°C)  =  25.00
                  Electrical balance (eq)  =   4.556e-13
 Percent error, 100*(Cat-|An|)/(Cat+|An|)  =   0.00
                               Iterations  =   3
                                  Total H  = 1.110126e+02
                                  Total O  = 5.550686e+01

----------------------------Distribution of species----------------------------

                                               Log       Log       Log    mole V
   Species          Molality    Activity  Molality  Activity     Gamma   cm³/mol

   H+              1.129e-07   1.056e-07    -6.947    -6.976    -0.029      0.00
   OH-             1.032e-07   9.583e-08    -6.986    -7.018    -0.032     -4.07
   H2O             5.551e+01   9.998e-01     1.744    -0.000     0.000     18.07
C(-4)         0.000e+00
   CH4             0.000e+00   0.000e+00  -128.569  -128.569     0.000     35.46
C(4)          2.276e-04
   HCO3-           1.860e-04   1.732e-04    -3.730    -3.762    -0.031     24.63
   CO2             4.109e-05   4.112e-05    -4.386    -4.386     0.000     34.79
   NaHCO3          3.477e-07   3.483e-07    -6.459    -6.458     0.001     17.66
   CO3-2           1.024e-07   7.691e-08    -6.990    -7.114    -0.124     -4.50
   CaCO3           9.920e-09   9.931e-09    -8.003    -8.003     0.000    -14.60
   (CO2)2          2.747e-11   2.749e-11   -10.561   -10.561     0.000     68.75
   CaHCO3+         1.253e-12   1.167e-12   -11.902   -11.933    -0.031      9.70
Ca            1.024e-04
   Ca+2            1.024e-04   7.687e-05    -3.990    -4.114    -0.125    -18.02
   CaCO3           9.920e-09   9.931e-09    -8.003    -8.003     0.000    -14.60
   CaOH+           1.300e-10   1.208e-10    -9.886    -9.918    -0.032     (0)  
   CaHCO3+         1.253e-12   1.167e-12   -11.902   -11.933    -0.031      9.70
Cl            4.394e-03
   Cl-             4.394e-03   4.080e-03    -2.357    -2.389    -0.032     18.11
   HCl             1.477e-10   1.484e-10    -9.830    -9.828     0.002     20.36
H(0)          0.000e+00
   H2              0.000e+00   0.000e+00   -40.294   -40.293     0.000     14.99
Na            4.376e-03
   Na+             4.375e-03   4.069e-03    -2.359    -2.391    -0.032     -1.42
   NaHCO3          3.477e-07   3.483e-07    -6.459    -6.458     0.001     17.66
O(0)          3.347e-12
   O2              1.673e-12   1.675e-12   -11.776   -11.776     0.000     30.40

------------------------------Saturation indices-------------------------------

  Phase               SI** log IAP   log K(298 K,   1 atm)

  Aragonite        -2.89    -11.23   -8.34  CaCO3
  Calcite          -2.78    -11.23   -8.45  CaCO3
  CH4(g)         -125.77   -128.57   -2.80  CH4
  CO2(g)           -2.92     -4.39   -1.47  CO2
  H2(g)           -37.19    -40.29   -3.10  H2
  H2O(g)           -1.50     -0.00    1.50  H2O
  Halite           -6.35     -4.78    1.57  NaCl
  O2(g)            -8.88    -11.78   -2.89  O2

**For a gas, SI = log10(fugacity). Fugacity = pressure * phi / 1 atm.
  For ideal gases, phi = 1.

Using mix 4.	

Mixture 4.	

	  0.000e+00 Solution 3	Solution after simulation 2.                           
	  1.000e+00 Solution 4	Solution after simulation 2.                           
	  0.000e+00 Solution 5	Solution after simulation 2.                           

-----------------------------Solution composition------------------------------

	Elements           Molality       Moles

	C                 2.323e-04   2.323e-04
	Ca                1.078e-04   1.078e-04
	Cl                7.621e-04   7.621e-04
	Na                7.355e-04   7.355e-04

----------------------------Description of solution----------------------------

                                       pH  =   6.973      Charge balance
                                       pe  =  11.648      Adjusted to redox equilibrium
      Specific Conductance (µS/cm,  25°C)  = 113
                          Density (g/cm³)  =   0.99709
                               Volume (L)  =   1.00298
                        Viscosity (mPa s)  =   0.89034
                        Activity of water  =   1.000
                 Ionic strength (mol/kgw)  =   1.059e-03
                       Mass of water (kg)  =   1.000e+00
                 Total alkalinity (eq/kg)  =   1.889e-04
                       Total CO2 (mol/kg)  =   2.323e-04
                         Temperature (°C)  =  25.00
                  Electrical balance (eq)  =   1.270e-12
 Percent error, 100*(Cat-|An|)/(Cat+|An|)  =   0.00
                               Iterations  =   3
                                  Total H  = 1.110126e+02
                                  Total O  = 5.550687e+01

----------------------------Distribution of species----------------------------

                                               Log       Log       Log    mole V
   Species          Molality    Activity  Molality  Activity     Gamma   cm³/mol

   H+              1.101e-07   1.063e-07    -6.958    -6.973    -0.015      0.00
   OH-             9.879e-08   9.522e-08    -7.005    -7.021    -0.016     -4.11
   H2O             5.551e+01   1.000e+00     1.744    -0.000     0.000     18.07
C(-4)         0.000e+00
   CH4             0.000e+00   0.000e+00  -128.940  -128.940     0.000     35.46
C(4)          2.323e-04
   HCO3-           1.887e-04   1.820e-04    -3.724    -3.740    -0.016     24.56
   CO2             4.349e-05   4.350e-05    -4.362    -4.362     0.000     34.79
   CO3-2           9.278e-08   8.029e-08    -7.033    -7.095    -0.063     -4.67
   NaHCO3          6.376e-08   6.378e-08    -7.195    -7.195     0.000     17.66
   CaCO3           1.258e-08   1.258e-08    -7.900    -7.900     0.000    -14.60
   (CO2)2          3.075e-11   3.076e-11   -10.512   -10.512     0.000     68.75
   CaHCO3+         1.543e-12   1.488e-12   -11.812   -11.827    -0.016      9.67
Ca            1.078e-04
   Ca+2            1.078e-04   9.327e-05    -3.967    -4.030    -0.063    -18.14
   CaCO3           1.258e-08   1.258e-08    -7.900    -7.900     0.000    -14.60
   CaOH+           1.510e-10   1.456e-10    -9.821    -9.837    -0.016     (0)  
   CaHCO3+         1.543e-12   1.488e-12   -11.812   -11.827    -0.016      9.67
Cl            7.621e-04
   Cl-             7.621e-04   7.346e-04    -3.118    -3.134    -0.016     18.08
   HCl             2.687e-11   2.690e-11   -10.571   -10.570     0.000     20.36
H(0)          0.000e+00
   H2              0.000e+00   0.000e+00   -40.392   -40.392     0.000     14.99
Na            7.355e-04
   Na+             7.354e-04   7.091e-04    -3.133    -3.149    -0.016     -1.48
   NaHCO3          6.376e-08   6.378e-08    -7.195    -7.195     0.000     17.66
O(0)          5.282e-12
   O2              2.641e-12   2.642e-12   -11.578   -11.578     0.000     30.40

------------------------------Saturation indices-------------------------------

  Phase               SI** log IAP   log K(298 K,   1 atm)

  Aragonite        -2.79    -11.13   -8.34  CaCO3
  Calcite          -2.68    -11.13   -8.45  CaCO3
  CH4(g)         -126.14   -128.94   -2.80  CH4
  CO2(g)           -2.89     -4.36   -1.47  CO2
  H2(g)           -37.29    -40.39   -3.10  H2
  H2O(g)           -1.50     -0.00    1.50  H2O
  Halite           -7.85     -6.28    1.57  NaCl
  O2(g)            -8.69    -11.58   -2.89  O2

**For a gas, SI = log10(fugacity). Fugacity = pressure * phi / 1 atm.
  For ideal gases, phi = 1.

Using mix 5.	

Mixture 5.	

	  0.000e+00 Solution 4	Solution after simulation 2.                           
	  1.000e+00 Solution 5	Solution after simulation 2.                           
	  0.000e+00 Solution 6	Solution after simulation 2.                           

-----------------------------Solution composition------------------------------

	Elements           Molality       Moles

	C                 2.353e-04   2.353e-04
	Ca                1.058e-04   1.058e-04
	Cl                1.120e-04   1.120e-04
	Na                9.174e-05   9.174e-05

----------------------------Description of solution----------------------------

                                       pH  =   6.980      Charge balance
                                       pe  =  11.680      Adjusted to redox equilibrium
      Specific Conductance (µS/cm,  25°C)  = 33
                          Density (g/cm³)  =   0.99706
                               Volume (L)  =   1.00297
                        Viscosity (mPa s)  =   0.89029
                        Activity of water  =   1.000
                 Ionic strength (mol/kgw)  =   4.093e-04
                       Mass of water (kg)  =   1.000e+00
                 Total alkalinity (eq/kg)  =   1.914e-04
                       Total CO2 (mol/kg)  =   2.353e-04
                         Temperature (°C)  =  25.00
                  Electrical balance (eq)  =  -1.256e-12
 Percent error, 100*(Cat-|An|)/(Cat+|An|)  =  -0.00
                               Iterations  =   4
                                  Total H  = 1.110126e+02
                                  Total O  = 5.550688e+01

----------------------------Distribution of species----------------------------

                                               Log       Log       Log    mole V
   Species          Molality    Activity  Molality  Activity     Gamma   cm³/mol

   H+              1.071e-07   1.047e-07    -6.970    -6.980    -0.010      0.00
   OH-             9.892e-08   9.665e-08    -7.005    -7.015    -0.010     -4.12
   H2O             5.551e+01   1.000e+00     1.744    -0.000     0.000     18.07
C(-4)         0.000e+00
   CH4             0.000e+00   0.000e+00  -129.242  -129.242     0.000     35.46
C(4)          2.353e-04
   HCO3-           1.912e-04   1.868e-04    -3.719    -3.729    -0.010     24.54
   CO2             4.399e-05   4.399e-05    -4.357    -4.357     0.000     34.79
   CO3-2           9.170e-08   8.366e-08    -7.038    -7.077    -0.040     -4.72
   CaCO3           1.356e-08   1.356e-08    -7.868    -7.868     0.000    -14.60
   NaHCO3          8.277e-09   8.278e-09    -8.082    -8.082     0.000     17.66
   (CO2)2          3.146e-11   3.146e-11   -10.502   -10.502     0.000     68.75
   CaHCO3+         1.617e-12   1.581e-12   -11.791   -11.801    -0.010      9.66
Ca            1.058e-04
   Ca+2            1.058e-04   9.650e-05    -3.976    -4.015    -0.040    -18.18
   CaCO3           1.356e-08   1.356e-08    -7.868    -7.868     0.000    -14.60
   CaOH+           1.565e-10   1.529e-10    -9.805    -9.816    -0.010     (0)  
   CaHCO3+         1.617e-12   1.581e-12   -11.791   -11.801    -0.010      9.66
Cl            1.120e-04
   Cl-             1.120e-04   1.094e-04    -3.951    -3.961    -0.010     18.06
   HCl             3.945e-12   3.947e-12   -11.404   -11.404     0.000     20.36
H(0)          0.000e+00
   H2              0.000e+00   0.000e+00   -40.469   -40.469     0.000     14.99
Na            9.174e-05
   Na+             9.174e-05   8.964e-05    -4.037    -4.047    -0.010     -1.49
   NaHCO3          8.277e-09   8.278e-09    -8.082    -8.082     0.000     17.66
O(0)          7.520e-12
   O2              3.760e-12   3.761e-12   -11.425   -11.425     0.000     30.40

------------------------------Saturation indices-------------------------------

  Phase               SI** log IAP   log K(298 K,   1 atm)

  Aragonite        -2.76    -11.09   -8.34  CaCO3
  Calcite          -2.64    -11.09   -8.45  CaCO3
  CH4(g)         -126.44   -129.24   -2.80  CH4
  CO2(g)           -2.89     -4.36   -1.47  CO2
  H2(g)           -37.37    -40.47   -3.10  H2
  H2O(g)           -1.50     -0.00    1.50  H2O
  Halite           -9.58     -8.01    1.57  NaCl
  O2(g)            -8.53    -11.42   -2.89  O2

**For a gas, SI = log10(fugacity). Fugacity = pressure * phi / 1 atm.
  For ideal gases, phi = 1.

Using mix 6.	

Mixture 6.	

	  0.000e+00 Solution 5	Solution after simulation 2.                           
	  1.000e+00 Solution 6	Solution after simulation 2.                           
	  0.000e+00 Solution 7	Solution after simulation 2.                           

-----------------------------Solution composition------------------------------

	Elements           Molality       Moles

	C                 2.410e-04   2.410e-04
	Ca                1.018e-04   1.018e-04
	Cl                1.480e-05   1.480e-05
	Na                8.321e-06   8.321e-06

----------------------------Description of solution----------------------------

                                       pH  =   6.993      Charge balance
                                       pe  =  11.683      Adjusted to redox equilibrium
      Specific Conductance (µS/cm,  25°C)  = 21
                          Density (g/cm³)  =   0.99706
                               Volume (L)  =   1.00297
                        Viscosity (mPa s)  =   0.89032
                        Activity of water  =   1.000
                 Ionic strength (mol/kgw)  =   3.137e-04
                       Mass of water (kg)  =   1.000e+00
                 Total alkalinity (eq/kg)  =   1.970e-04
                       Total CO2 (mol/kg)  =   2.410e-04
                         Temperature (°C)  =  25.00
                  Electrical balance (eq)  =  -1.286e-12
 Percent error, 100*(Cat-|An|)/(Cat+|An|)  =  -0.00
                               Iterations  =   4
                                  Total H  = 1.110126e+02
                                  Total O  = 5.550690e+01

----------------------------Distribution of species----------------------------

                                               Log       Log       Log    mole V
   Species          Molality    Activity  Molality  Activity     Gamma   cm³/mol

   H+              1.036e-07   1.016e-07    -6.985    -6.993    -0.009      0.00
   OH-             1.017e-07   9.965e-08    -6.993    -7.002    -0.009     -4.12
   H2O             5.551e+01   1.000e+00     1.744    -0.000     0.000     18.07
C(-4)         0.000e+00
   CH4             0.000e+00   0.000e+00  -129.378  -129.378     0.000     35.46
C(4)          2.410e-04
   HCO3-           1.968e-04   1.929e-04    -3.706    -3.715    -0.009     24.54
   CO2             4.405e-05   4.405e-05    -4.356    -4.356     0.000     34.79
   CO3-2           9.654e-08   8.906e-08    -7.015    -7.050    -0.035     -4.74
   CaCO3           1.404e-08   1.404e-08    -7.853    -7.853     0.000    -14.60
   NaHCO3          7.772e-10   7.773e-10    -9.109    -9.109     0.000     17.66
   (CO2)2          3.154e-11   3.154e-11   -10.501   -10.501     0.000     68.75
   CaHCO3+         1.619e-12   1.587e-12   -11.791   -11.799    -0.009      9.66
Ca            1.018e-04
   Ca+2            1.017e-04   9.385e-05    -3.992    -4.028    -0.035    -18.19
   CaCO3           1.404e-08   1.404e-08    -7.853    -7.853     0.000    -14.60
   CaOH+           1.565e-10   1.533e-10    -9.805    -9.814    -0.009     (0)  
   CaHCO3+         1.619e-12   1.587e-12   -11.791   -11.799    -0.009      9.66
Cl            1.480e-05
   Cl-             1.480e-05   1.450e-05    -4.830    -4.839    -0.009     18.06
   HCl             5.072e-13   5.074e-13   -12.295   -12.295     0.000     20.36
H(0)          0.000e+00
   H2              0.000e+00   0.000e+00   -40.503   -40.503     0.000     14.99
Na            8.321e-06
   Na+             8.320e-06   8.153e-06    -5.080    -5.089    -0.009     -1.50
   NaHCO3          7.772e-10   7.773e-10    -9.109    -9.109     0.000     17.66
O(0)          8.799e-12
   O2              4.399e-12   4.400e-12   -11.357   -11.357     0.000     30.40

------------------------------Saturation indices-------------------------------

  Phase               SI** log IAP   log K(298 K,   1 atm)

  Aragonite        -2.74    -11.08   -8.34  CaCO3
  Calcite          -2.63    -11.08   -8.45  CaCO3
  CH4(g)         -126.58   -129.38   -2.80  CH4
  CO2(g)           -2.89     -4.36   -1.47  CO2
  H2(g)           -37.40    -40.50   -3.10  H2
  H2O(g)           -1.50     -0.00    1.50  H2O
  Halite          -11.50     -9.93    1.57  NaCl
  O2(g)            -8.46    -11.36   -2.89  O2

**For a gas, SI = log10(fugacity). Fugacity = pressure * phi / 1 atm.
  For ideal gases, phi = 1.

Using mix 7.	

Mixture 7.	

	  0.000e+00 Solution 6	Solution after simulation 2.                           
	  1.000e+00 Solution 7	Solution after simulation 2.                           
	  0.000e+00 Solution 8	Solution after simulation 2.                           

-----------------------------Solution composition------------------------------

	Elements           Molality       Moles

	C                 2.434e-04   2.434e-04
	Ca                1.003e-04   1.003e-04
	Cl                1.679e-06   1.679e-06
	Na                5.838e-07   5.838e-07

----------------------------Description of solution----------------------------

                                       pH  =   6.999      Charge balance
                                       pe  =  11.676      Adjusted to redox equilibrium
      Specific Conductance (µS/cm,  25°C)  = 20
                          Density (g/cm³)  =   0.99706
                               Volume (L)  =   1.00297
                        Viscosity (mPa s)  =   0.89033
                        Activity of water  =   1.000
                 Ionic strength (mol/kgw)  =   3.016e-04
                       Mass of water (kg)  =   1.000e+00
                 Total alkalinity (eq/kg)  =   1.995e-04
                       Total CO2 (mol/kg)  =   2.434e-04
                         Temperature (°C)  =  25.00
                  Electrical balance (eq)  =  -1.287e-12
 Percent error, 100*(Cat-|An|)/(Cat+|An|)  =  -0.00
                               Iterations  =   4
                                  Total H  = 1.110126e+02
                                  Total O  = 5.550690e+01

----------------------------Distribution of species----------------------------

                                               Log       Log       Log    mole V
   Species          Molality    Activity  Molality  Activity     Gamma   cm³/mol

   OH-             1.030e-07   1.009e-07    -6.987    -6.996    -0.009     -4.12
   H+              1.022e-07   1.003e-07    -6.990    -6.999    -0.008      0.00
   H2O             5.551e+01   1.000e+00     1.744    -0.000     0.000     18.07
C(-4)         0.000e+00
   CH4             0.000e+00   0.000e+00  -129.365  -129.365     0.000     35.46
C(4)          2.434e-04
   HCO3-           1.992e-04   1.953e-04    -3.701    -3.709    -0.009     24.54
   CO2             4.404e-05   4.404e-05    -4.356    -4.356     0.000     34.79
   CO3-2           9.888e-08   9.136e-08    -7.005    -7.039    -0.034     -4.74
   CaCO3           1.422e-08   1.422e-08    -7.847    -7.847     0.000    -14.60
   NaHCO3          5.525e-11   5.525e-11   -10.258   -10.258     0.000     17.66
   (CO2)2          3.153e-11   3.153e-11   -10.501   -10.501     0.000     68.75
   CaHCO3+         1.618e-12   1.587e-12   -11.791   -11.800    -0.009      9.66
Ca            1.003e-04
   Ca+2            1.003e-04   9.263e-05    -3.999    -4.033    -0.034    -18.19
   CaCO3           1.422e-08   1.422e-08    -7.847    -7.847     0.000    -14.60
   CaOH+           1.564e-10   1.533e-10    -9.806    -9.814    -0.009     (0)  
   CaHCO3+         1.618e-12   1.587e-12   -11.791   -11.800    -0.009      9.66
Cl            1.679e-06
   Cl-             1.679e-06   1.646e-06    -5.775    -5.784    -0.009     18.06
   HCl             5.683e-14   5.685e-14   -13.245   -13.245     0.000     20.36
H(0)          0.000e+00
   H2              0.000e+00   0.000e+00   -40.500   -40.500     0.000     14.99
Na            5.838e-07
   Na+             5.837e-07   5.723e-07    -6.234    -6.242    -0.009     -1.50
   NaHCO3          5.525e-11   5.525e-11   -10.258   -10.258     0.000     17.66
O(0)          8.668e-12
   O2              4.334e-12   4.334e-12   -11.363   -11.363     0.000     30.40

------------------------------Saturation indices-------------------------------

  Phase               SI** log IAP   log K(298 K,   1 atm)

  Aragonite        -2.74    -11.07   -8.34  CaCO3
  Calcite          -2.62    -11.07   -8.45  CaCO3
  CH4(g)         -126.56   -129.36   -2.80  CH4
  CO2(g)           -2.89     -4.36   -1.47  CO2
  H2(g)           -37.40    -40.50   -3.10  H2
  H2O(g)           -1.50     -0.00    1.50  H2O
  Halite          -13.60    -12.03    1.57  NaCl
  O2(g)            -8.47    -11.36   -2.89  O2

**For a gas, SI = log10(fugacity). Fugacity = pressure * phi / 1 atm.
  For ideal gases, phi = 1.

Using mix 8.	

Mixture 8.	

	  0.000e+00 Solution 7	Solution after simulation 2.                           
	  1.000e+00 Solution 8	Solution after simulation 2.                           
	  0.000e+00 Solution 9	Solution after simulation 2.                           

-----------------------------Solution composition------------------------------

	Elements           Molality       Moles

	C                 2.439e-04   2.439e-04
[...]
 Percent error, 100*(Cat-|An|)/(Cat+|An|)  =  -0.02
                               Iterations  =   0 (24 overall)
                                  Total H  = 5.613339e+01
                                  Total O  = 2.806699e+01

----------------------------Distribution of species----------------------------

                                               Log       Log       Log    mole V
   Species          Molality    Activity  Molality  Activity     Gamma   cm³/mol

   H+              1.029e-07   1.009e-07    -6.987    -6.996    -0.009      0.00
   OH-             1.023e-07   1.003e-07    -6.990    -6.999    -0.009     -4.12
   H2O             1.097e+02   1.000e+00     2.040    -0.000     0.000     18.07
C(-4)         9.803e-10
   CH4             9.803e-10   9.804e-10    -9.009    -9.009     0.000     35.46
C(4)          2.421e-04
   HCO3-           1.980e-04   1.941e-04    -3.703    -3.712    -0.009     24.54
   CO2             4.403e-05   4.404e-05    -4.356    -4.356     0.000     34.79
   CO3-2           9.769e-08   9.018e-08    -7.010    -7.045    -0.035     -4.74
   CaCO3           1.436e-08   1.436e-08    -7.843    -7.843     0.000    -14.60
   (CO2)2          3.152e-11   3.153e-11   -10.501   -10.501     0.000     68.75
   NaHCO3          9.739e-12   9.740e-12   -11.012   -11.011     0.000     17.66
   CaHCO3+         1.646e-12   1.613e-12   -11.784   -11.792    -0.009      9.66
Ca            1.027e-04
   Ca+2            1.027e-04   9.481e-05    -3.988    -4.023    -0.035    -18.19
   CaCO3           1.436e-08   1.436e-08    -7.843    -7.843     0.000    -14.60
   CaOH+           1.591e-10   1.559e-10    -9.798    -9.807    -0.009     (0)  
   CaHCO3+         1.646e-12   1.613e-12   -11.784   -11.792    -0.009      9.66
Cl            7.441e-06
   Cl-             7.441e-06   7.292e-06    -5.128    -5.137    -0.009     18.06
   HCl             2.535e-13   2.535e-13   -12.596   -12.596     0.000     20.36
H(0)          7.768e-11
   H2              3.884e-11   3.884e-11   -10.411   -10.411     0.000     14.99
Na            1.036e-07
   Na+             1.036e-07   1.015e-07    -6.985    -6.993    -0.009     -1.50
   NaHCO3          9.739e-12   9.740e-12   -11.012   -11.011     0.000     17.66
O(0)          0.000e+00
   O2              0.000e+00   0.000e+00   -71.541   -71.541     0.000     30.40

------------------------------Saturation indices-------------------------------

  Phase               SI** log IAP   log K(298 K,   1 atm)

  Aragonite        -2.73    -11.07   -8.34  CaCO3
  Calcite          -2.62    -11.07   -8.45  CaCO3
  CH4(g)           -6.21     -9.01   -2.80  CH4
  CO2(g)           -2.89     -4.36   -1.47  CO2
  H2(g)            -7.31    -10.41   -3.10  H2
  H2O(g)           -1.50     -0.00    1.50  H2O
  Halite          -13.70    -12.13    1.57  NaCl
  O2(g)           -68.65    -71.54   -2.89  O2

**For a gas, SI = log10(fugacity). Fugacity = pressure * phi / 1 atm.
  For ideal gases, phi = 1.

Using mix 8.	
Using surface 8.	

Mixture 8.	

	  0.000e+00 Solution 7	Solution after simulation 4.                           
	  1.000e+00 Solution 8	Solution after simulation 4.                           
	  0.000e+00 Solution 9	Solution after simulation 4.                           

------------------------------Surface composition------------------------------

Diffuse Double Layer Surface-Complexation Model

Su            
	  4.237e-10  Surface + diffuse layer charge, eq
	 -1.000e+00  Surface charge, eq
	 -2.894e+00  sigma, C/m²
	 -4.087e-01  psi, V
	  1.591e+01  -F*psi/RT
	  8.091e+06  exp(-F*psi/RT)
	  3.334e+04  specific area, m²/g
	  3.334e+04  m² for   1.000e+00 g

	Water in diffuse layer: 4.988e-01 kg, 100.0% of total DDL-water.
		      viscosity: 0.00000 mPa s for DDL water.
	Radius of total pore:   5.995e-08 m; of free pore: 4.243e-08 m.

	Total moles in diffuse layer (excluding water), Donnan calculation.
	Donnan Layer potential, psi_DL = -1.183e-01 V.
	Boltzmann factor, exp(-psi_DL * F / RT) = 1.000e+02 (= c_DL / c_free if z is +1).

	Element       	     Moles
	C             	  2.2963e-05
	Ca            	  5.0000e-01
	Cl            	  3.4234e-09
	H             	  6.0950e-06
	Na            	  2.9919e-07
	O             	  4.6935e-05

Su            
	  1.000e+00  moles
	                                   Mole                     Log
	Species               Moles    Fraction    Molality    Molality

	Su-               1.000e+00       1.000   1.998e+00       0.301

-----------------------------Solution composition------------------------------

	Elements           Molality       Moles

	C                 2.438e-04   1.220e-04
	Ca                1.002e-04   5.016e-05
	Cl                6.864e-07   3.436e-07
	Na                5.998e-09   3.002e-09

----------------------------Description of solution----------------------------

                                       pH  =   7.000      Charge balance
                                       pe  =  -3.381      Adjusted to redox equilibrium
      Specific Conductance (µS/cm,  25°C)  = 5
                          Density (g/cm³)  =   0.99706
                               Volume (L)  =   1.00227
                        Viscosity (mPa s)  =   0.89033
                        Activity of water  =   1.000
                 Ionic strength (mol/kgw)  =   3.009e-04
                       Mass of water (kg)  =   5.005e-01
                 Total alkalinity (eq/kg)  =   1.999e-04
                       Total CO2 (mol/kg)  =   2.438e-04
                         Temperature (°C)  =  25.00
                  Electrical balance (eq)  =  -4.468e-08
 Percent error, 100*(Cat-|An|)/(Cat+|An|)  =  -0.02
                               Iterations  =   0 (21 overall)
                                  Total H  = 5.556235e+01
                                  Total O  = 2.778147e+01

----------------------------Distribution of species----------------------------

                                               Log       Log       Log    mole V
   Species          Molality    Activity  Molality  Activity     Gamma   cm³/mol

   OH-             1.032e-07   1.012e-07    -6.986    -6.995    -0.009     -4.12
   H+              1.020e-07   1.000e-07    -6.991    -7.000    -0.008      0.00
   H2O             1.108e+02   1.000e+00     2.045    -0.000     0.000     18.07
C(-4)         1.220e-09
   CH4             1.220e-09   1.220e-09    -8.914    -8.914     0.000     35.46
C(4)          2.438e-04
   HCO3-           1.996e-04   1.957e-04    -3.700    -3.708    -0.009     24.54
   CO2             4.402e-05   4.403e-05    -4.356    -4.356     0.000     34.79
   CO3-2           9.930e-08   9.175e-08    -7.003    -7.037    -0.034     -4.74
   CaCO3           1.427e-08   1.427e-08    -7.846    -7.846     0.000    -14.60
   (CO2)2          3.151e-11   3.151e-11   -10.502   -10.502     0.000     68.75
   CaHCO3+         1.621e-12   1.589e-12   -11.790   -11.799    -0.009      9.66
   NaHCO3          5.687e-13   5.688e-13   -12.245   -12.245     0.000     17.66
Ca            1.002e-04
   Ca+2            1.002e-04   9.259e-05    -3.999    -4.033    -0.034    -18.19
   CaCO3           1.427e-08   1.427e-08    -7.846    -7.846     0.000    -14.60
   CaOH+           1.567e-10   1.536e-10    -9.805    -9.814    -0.009     (0)  
   CaHCO3+         1.621e-12   1.589e-12   -11.790   -11.799    -0.009      9.66
Cl            6.864e-07
   Cl-             6.864e-07   6.729e-07    -6.163    -6.172    -0.009     18.06
   HCl             2.318e-14   2.319e-14   -13.635   -13.635     0.000     20.36
H(0)          8.205e-11
   H2              4.103e-11   4.103e-11   -10.387   -10.387     0.000     14.99
Na            5.998e-09
   Na+             5.997e-09   5.880e-09    -8.222    -8.231    -0.009     -1.50
   NaHCO3          5.687e-13   5.688e-13   -12.245   -12.245     0.000     17.66
O(0)          0.000e+00
   O2              0.000e+00   0.000e+00   -71.589   -71.589     0.000     30.40

------------------------------Saturation indices-------------------------------

  Phase               SI** log IAP   log K(298 K,   1 atm)

  Aragonite        -2.73    -11.07   -8.34  CaCO3
  Calcite          -2.62    -11.07   -8.45  CaCO3
  CH4(g)           -6.11     -8.91   -2.80  CH4
  CO2(g)           -2.89     -4.36   -1.47  CO2
  H2(g)            -7.29    -10.39   -3.10  H2
  H2O(g)           -1.50     -0.00    1.50  H2O
  Halite          -15.97    -14.40    1.57  NaCl
  O2(g)           -68.70    -71.59   -2.89  O2

**For a gas, SI = log10(fugacity). Fugacity = pressure * phi / 1 atm.
  For ideal gases, phi = 1.

Using mix 9.	
Using surface 9.	

Mixture 9.	

	  0.000e+00 Solution 8	Solution after simulation 4.                           
	  1.000e+00 Solution 9	Solution after simulation 4.                           
	  0.000e+00 Solution 10	Solution after simulation 4.                           

------------------------------Surface composition------------------------------

Diffuse Double Layer Surface-Complexation Model

Su            
	 -5.889e-10  Surface + diffuse layer charge, eq
	 -1.000e+00  Surface charge, eq
	 -2.894e+00  sigma, C/m²
	 -4.087e-01  psi, V
	  1.591e+01  -F*psi/RT
	  8.111e+06  exp(-F*psi/RT)
	  3.334e+04  specific area, m²/g
	  3.334e+04  m² for   1.000e+00 g

	Water in diffuse layer: 4.993e-01 kg, 100.0% of total DDL-water.
		      viscosity: 0.00000 mPa s for DDL water.
	Radius of total pore:   5.995e-08 m; of free pore: 4.241e-08 m.

	Total moles in diffuse layer (excluding water), Donnan calculation.
	Donnan Layer potential, psi_DL = -1.183e-01 V.
	Boltzmann factor, exp(-psi_DL * F / RT) = 1.001e+02 (= c_DL / c_free if z is +1).

	Element       	     Moles
	C             	  2.2986e-05
	Ca            	  5.0000e-01
	Cl            	  2.5927e-10
	H             	  6.1007e-06
	Na            	  1.4581e-08
	O             	  4.6984e-05

Su            
	  1.000e+00  moles
	                                   Mole                     Log
	Species               Moles    Fraction    Molality    Molality

	Su-               1.000e+00       1.000   2.000e+00       0.301

-----------------------------Solution composition------------------------------

	Elements           Molality       Moles

	C                 2.439e-04   1.220e-04
	Ca                9.999e-05   5.000e-05
	Cl                5.197e-08   2.598e-08
	Na                2.918e-10   1.459e-10

----------------------------Description of solution----------------------------

                                       pH  =   7.000      Charge balance
                                       pe  =  -3.383      Adjusted to redox equilibrium
      Specific Conductance (µS/cm,  25°C)  = 5
                          Density (g/cm³)  =   0.99706
                               Volume (L)  =   1.00227
                        Viscosity (mPa s)  =   0.89033
                        Activity of water  =   1.000
                 Ionic strength (mol/kgw)  =   3.002e-04
                       Mass of water (kg)  =   5.000e-01
                 Total alkalinity (eq/kg)  =   2.000e-04
                       Total CO2 (mol/kg)  =   2.439e-04
                         Temperature (°C)  =  25.00
                  Electrical balance (eq)  =  -4.256e-08
 Percent error, 100*(Cat-|An|)/(Cat+|An|)  =  -0.02
                               Iterations  =   0 (21 overall)
                                  Total H  = 5.550775e+01
                                  Total O  = 2.775417e+01

----------------------------Distribution of species----------------------------

                                               Log       Log       Log    mole V
   Species          Molality    Activity  Molality  Activity     Gamma   cm³/mol

   OH-             1.033e-07   1.012e-07    -6.986    -6.995    -0.009     -4.12
   H+              1.019e-07   9.997e-08    -6.992    -7.000    -0.008      0.00
   H2O             1.109e+02   1.000e+00     2.045    -0.000     0.000     18.07
C(-4)         1.258e-09
   CH4             1.258e-09   1.258e-09    -8.900    -8.900     0.000     35.46
C(4)          2.439e-04
   HCO3-           1.998e-04   1.959e-04    -3.699    -3.708    -0.009     24.54
   CO2             4.403e-05   4.403e-05    -4.356    -4.356     0.000     34.79
   CO3-2           9.944e-08   9.189e-08    -7.002    -7.037    -0.034     -4.74
   CaCO3           1.426e-08   1.426e-08    -7.846    -7.846     0.000    -14.60
   (CO2)2          3.151e-11   3.151e-11   -10.502   -10.502     0.000     68.75
   CaHCO3+         1.618e-12   1.587e-12   -11.791   -11.800    -0.009      9.66
   NaHCO3          2.769e-14   2.770e-14   -13.558   -13.558     0.000     17.66
Ca            9.999e-05
   Ca+2            9.998e-05   9.238e-05    -4.000    -4.034    -0.034    -18.19
   CaCO3           1.426e-08   1.426e-08    -7.846    -7.846     0.000    -14.60
   CaOH+           1.564e-10   1.534e-10    -9.806    -9.814    -0.009     (0)  
   CaHCO3+         1.618e-12   1.587e-12   -11.791   -11.800    -0.009      9.66
Cl            5.197e-08
   Cl-             5.197e-08   5.094e-08    -7.284    -7.293    -0.009     18.06
   HCl             1.754e-15   1.754e-15   -14.756   -14.756     0.000     20.36
H(0)          8.268e-11
   H2              4.134e-11   4.134e-11   -10.384   -10.384     0.000     14.99
Na            2.918e-10
   Na+             2.918e-10   2.861e-10    -9.535    -9.544    -0.009     -1.50
   NaHCO3          2.769e-14   2.770e-14   -13.558   -13.558     0.000     17.66
O(0)          0.000e+00
   O2              0.000e+00   0.000e+00   -71.595   -71.595     0.000     30.40

------------------------------Saturation indices-------------------------------

  Phase               SI** log IAP   log K(298 K,   1 atm)

  Aragonite        -2.74    -11.07   -8.34  CaCO3
  Calcite          -2.62    -11.07   -8.45  CaCO3
  CH4(g)           -6.10     -8.90   -2.80  CH4
  CO2(g)           -2.89     -4.36   -1.47  CO2
  H2(g)            -7.28    -10.38   -3.10  H2
  H2O(g)           -1.50     -0.00    1.50  H2O
  Halite          -18.41    -16.84    1.57  NaCl
  O2(g)           -68.70    -71.60   -2.89  O2

**For a gas, SI = log10(fugacity). Fugacity = pressure * phi / 1 atm.
  For ideal gases, phi = 1.

Using mix 10.	
Using surface 10.	

Mixture 10.	

	  0.000e+00 Solution 9	Solution after simulation 4.                           
	  1.000e+00 Solution 10	Solution after simulation 4.                           
	  0.000e+00 Solution 11	                                                       

------------------------------Surface composition------------------------------

Diffuse Double Layer Surface-Complexation Model

Su            
	 -5.620e-09  Surface + diffuse layer charge, eq
	 -1.000e+00  Surface charge, eq
	 -2.894e+00  sigma, C/m²
	 -4.087e-01  psi, V
	  1.591e+01  -F*psi/RT
	  8.112e+06  exp(-F*psi/RT)
	  3.334e+04  specific area, m²/g
	  3.334e+04  m² for   1.000e+00 g

	Water in diffuse layer: 4.993e-01 kg, 100.0% of total DDL-water.
		      viscosity: 0.00000 mPa s for DDL water.
	Radius of total pore:   5.995e-08 m; of free pore: 4.241e-08 m.

	Total moles in diffuse layer (excluding water), Donnan calculation.
	Donnan Layer potential, psi_DL = -1.183e-01 V.
	Boltzmann factor, exp(-psi_DL * F / RT) = 1.001e+02 (= c_DL / c_free if z is +1).

	Element       	     Moles
	C             	  2.2991e-05
	Ca            	  5.0000e-01
	Cl            	  1.7175e-11
	H             	  6.1001e-06
	Na            	  6.1283e-10
	O             	  4.6993e-05

Su            
	  1.000e+00  moles
	                                   Mole                     Log
	Species               Moles    Fraction    Molality    Molality

	Su-               1.000e+00       1.000   2.000e+00       0.301

-----------------------------Solution composition------------------------------

	Elements           Molality       Moles

	C                 2.439e-04   1.220e-04
	Ca                9.999e-05   5.000e-05
	Cl                3.442e-09   1.721e-09
	Na                1.226e-11   6.132e-12

----------------------------Description of solution----------------------------

                                       pH  =   7.000      Charge balance
                                       pe  =  -3.308      Adjusted to redox equilibrium
      Specific Conductance (µS/cm,  25°C)  = 5
                          Density (g/cm³)  =   0.99706
                               Volume (L)  =   1.00227
                        Viscosity (mPa s)  =   0.89033
                        Activity of water  =   1.000
                 Ionic strength (mol/kgw)  =   3.001e-04
                       Mass of water (kg)  =   5.000e-01
                 Total alkalinity (eq/kg)  =   2.000e-04
                       Total CO2 (mol/kg)  =   2.439e-04
                         Temperature (°C)  =  25.00
                  Electrical balance (eq)  =  -1.355e-08
 Percent error, 100*(Cat-|An|)/(Cat+|An|)  =  -0.01
                               Iterations  =   0 (21 overall)
                                  Total H  = 5.550551e+01
                                  Total O  = 2.775305e+01

----------------------------Distribution of species----------------------------

                                               Log       Log       Log    mole V
   Species          Molality    Activity  Molality  Activity     Gamma   cm³/mol

   OH-             1.033e-07   1.012e-07    -6.986    -6.995    -0.009     -4.12
   H+              1.019e-07   9.999e-08    -6.992    -7.000    -0.008      0.00
   H2O             1.109e+02   1.000e+00     2.045    -0.000     0.000     18.07
C(-4)         3.127e-10
   CH4             3.127e-10   3.127e-10    -9.505    -9.505     0.000     35.46
C(4)          2.439e-04
   HCO3-           1.998e-04   1.959e-04    -3.699    -3.708    -0.009     24.54
   CO2             4.403e-05   4.404e-05    -4.356    -4.356     0.000     34.79
   CO3-2           9.942e-08   9.187e-08    -7.003    -7.037    -0.034     -4.74
   CaCO3           1.426e-08   1.426e-08    -7.846    -7.846     0.000    -14.60
   (CO2)2          3.152e-11   3.152e-11   -10.501   -10.501     0.000     68.75
   CaHCO3+         1.618e-12   1.587e-12   -11.791   -11.800    -0.009      9.66
   NaHCO3          1.164e-15   1.164e-15   -14.934   -14.934     0.000     17.66
Ca            9.999e-05
   Ca+2            9.998e-05   9.238e-05    -4.000    -4.034    -0.034    -18.19
   CaCO3           1.426e-08   1.426e-08    -7.846    -7.846     0.000    -14.60
   CaOH+           1.564e-10   1.533e-10    -9.806    -9.814    -0.009     (0)  
   CaHCO3+         1.618e-12   1.587e-12   -11.791   -11.800    -0.009      9.66
Cl            3.442e-09
   Cl-             3.442e-09   3.374e-09    -8.463    -8.472    -0.009     18.06
   HCl             1.162e-16   1.162e-16   -15.935   -15.935     0.000     20.36
H(0)          5.838e-11
   H2              2.919e-11   2.919e-11   -10.535   -10.535     0.000     14.99
Na            1.226e-11
   Na+             1.226e-11   1.202e-11   -10.911   -10.920    -0.009     -1.50
   NaHCO3          1.164e-15   1.164e-15   -14.934   -14.934     0.000     17.66
O(0)          0.000e+00
   O2              0.000e+00   0.000e+00   -71.293   -71.293     0.000     30.40

------------------------------Saturation indices-------------------------------

  Phase               SI** log IAP   log K(298 K,   1 atm)

  Aragonite        -2.74    -11.07   -8.34  CaCO3
  Calcite          -2.62    -11.07   -8.45  CaCO3
  CH4(g)           -6.70     -9.50   -2.80  CH4
  CO2(g)           -2.89     -4.36   -1.47  CO2
  H2(g)            -7.44    -10.53   -3.10  H2
  H2O(g)           -1.50     -0.00    1.50  H2O
  Halite          -20.96    -19.39    1.57  NaCl
  O2(g)           -68.40    -71.29   -2.89  O2

**For a gas, SI = log10(fugacity). Fugacity = pressure * phi / 1 atm.
  For ideal gases, phi = 1.

------------------
End of simulation.
------------------

------------------------------------
Reading input data for simulation 5.
------------------------------------

