WARNING: Database file from DATABASE keyword is used; command line argument ignored.
   Input file: delta_h
  Output file: delta_h.out
Database file: ../database/phreeqc.dat

------------------
Reading data base.
------------------

	SOLUTION_MASTER_SPECIES
	SOLUTION_SPECIES
	PHASES
	GAS_BINARY_PARAMETERS
	EXCHANGE_MASTER_SPECIES
	EXCHANGE_SPECIES
	SURFACE_MASTER_SPECIES
	SURFACE_SPECIES
	MEAN_GAMMAS
	RATES
	END
------------------------------------
Reading input data for simulation 1.
------------------------------------

	DATABASE ../database/phreeqc.dat
	SELECTED_OUTPUT 101
	    file                 delta_h_101.sel
	USER_PUNCH 101
	    headings Mu SC
	    start
	10 PUNCH STR_F$(MU, 20, 12)
	20 PUNCH STR_F$(SC, 20, 10)
	    end
	SOLUTION 1
		Ca 10
		C  10 charge
	END
-------------------------------------------
Beginning of initial solution calculations.
-------------------------------------------

Initial solution 1.	

-----------------------------Solution composition------------------------------

	Elements           Molality       Moles

	C                 2.372e-02   2.372e-02  Charge balance
	Ca                1.000e-02   1.000e-02

----------------------------Description of solution----------------------------

                                       pH  =   7.000    
                                       pe  =   4.000    
      Specific Conductance (µS/cm,  25°C)  = 1726
                          Density (g/cm³)  =   0.99837
                               Volume (L)  =   1.00341
                        Viscosity (mPa s)  =   0.89851
                        Activity of water  =   0.999
                 Ionic strength (mol/kgw)  =   2.980e-02
                       Mass of water (kg)  =   1.000e+00
                 Total alkalinity (eq/kg)  =   2.000e-02
                       Total CO2 (mol/kg)  =   2.372e-02
                         Temperature (°C)  =  25.00
                  Electrical balance (eq)  =  -4.517e-12
 Percent error, 100*(Cat-|An|)/(Cat+|An|)  =  -0.00
                               Iterations  =   5
                                  Total H  = 1.110323e+02
                                  Total O  = 5.557357e+01

----------------------------Distribution of species----------------------------

                                               Log       Log       Log    mole V
   Species          Molality    Activity  Molality  Activity     Gamma   cm³/mol

   OH-             1.198e-07   1.012e-07    -6.922    -6.995    -0.073     -3.94
   H+              1.144e-07   1.000e-07    -6.942    -7.000    -0.058      0.00
   H2O             5.551e+01   9.994e-01     1.744    -0.000     0.000     18.07
C(-4)         0.000e+00
   CH4             0.000e+00   0.000e+00   -66.030   -66.027     0.003     35.46
C(4)          2.372e-02
   HCO3-           1.983e-02   1.699e-02    -1.703    -1.770    -0.067     24.89
   CO2             3.804e-03   3.821e-03    -2.420    -2.418     0.002     34.79
   CaCO3           7.096e-05   7.145e-05    -4.149    -4.146     0.003    -14.60
   CO3-2           1.482e-05   7.966e-06    -4.829    -5.099    -0.270     -3.99
   (CO2)2          2.363e-07   2.374e-07    -6.626    -6.624     0.002     68.75
   CaHCO3+         9.250e-09   7.951e-09    -8.034    -8.100    -0.066      9.77
Ca            1.000e-02
   Ca+2            9.929e-03   5.339e-03    -2.003    -2.273    -0.269    -17.74
   CaCO3           7.096e-05   7.145e-05    -4.149    -4.146     0.003    -14.60
   CaOH+           1.042e-08   8.855e-09    -7.982    -8.053    -0.071     (0)  
   CaHCO3+         9.250e-09   7.951e-09    -8.034    -8.100    -0.066      9.77
H(0)          1.406e-25
   H2              7.029e-26   7.079e-26   -25.153   -25.150     0.003     14.99
O(0)          0.000e+00
   O2              0.000e+00   0.000e+00   -42.066   -42.063     0.003     30.40

------------------------------Saturation indices-------------------------------

  Phase               SI** log IAP   log K(298 K,   1 atm)

  Aragonite         0.96     -7.37   -8.34  CaCO3
  Calcite           1.08     -7.37   -8.45  CaCO3
  CH4(g)          -63.23    -66.03   -2.80  CH4
  CO2(g)           -0.95     -2.42   -1.47  CO2
  H2(g)           -22.05    -25.15   -3.10  H2
  H2O(g)           -1.50     -0.00    1.50  H2O
  O2(g)           -39.17    -42.06   -2.89  O2

**For a gas, SI = log10(fugacity). Fugacity = pressure * phi / 1 atm.
  For ideal gases, phi = 1.

------------------
End of simulation.
------------------

------------------------------------
Reading input data for simulation 2.
------------------------------------

	EQUILIBRIUM_PHASES
		Calcite 0 10
		Gypsum 0 10
	END
------------------
End of simulation.
------------------

------------------------------------
Reading input data for simulation 3.
------------------------------------

	REACTION_TEMPERATURE
	25 50 
	RUN_CELLS
	-cell 1
	USER_PRINT
		10 x = SYS("aq", count, name$, type$, molality,1)
		20 PRINT "Species        Delta H      DH a0     DH bdot"
		25 PRINT "               kcal/mol  (ion size)"
		30 FOR i = 1 TO count
		40   PRINT PAD$(name$(i),10), STR_F$(DELTA_H_SPECIES(name$(i))/4.184,10,2), 				STR_F$(DH_A0(name$(i)),10,2),  STR_F$(DH_BDOT(name$(i)),11,3)
		50 NEXT i
		110 x = SYS("phases", count, name$, type$, s,1)
		120 PRINT EOL$ + "Phase      Delta H, kcal/mol"
		130 FOR i = 1 TO count
		140   PRINT PAD$(name$(i),11), STR_F$(DELTA_H_PHASE(name$(i))/4.184,10,2)
		150 NEXT i
	END
--------------------------
Beginning of run as cells.
--------------------------

-----------------------------------------
Beginning of batch-reaction calculations.
-----------------------------------------

Reaction step 1.

Using solution 1.	
Using pure phase assemblage 1.	
Using temperature 1.	

----------------------------------User print-----------------------------------

Species        Delta H      DH a0     DH bdot 
               kcal/mol  (ion size) 
(CO2)2           8.94       0.00       0.066 
(H2S)2           4.44       0.00       0.100 
CH4            -61.04       0.00       0.100 
CO2             -5.74       0.00       0.066 
CO3-2            0.00       5.40       0.000 
Ca+2             0.00       5.00       0.165 
CaCO3            3.55       0.00       0.100 
CaHCO3+         34.23       6.00       0.000 
CaHSO4+          0.00       0.00       0.000 
CaOH+            0.00       0.00       0.000 
CaSO4            5.83       0.00       0.044 
H+               0.00       9.00       0.000 
H2              -1.76       0.00       0.105 
H2S             -5.30       0.00       0.100 
HCO3-           -3.56       5.40       0.008 
HS-            -60.14       3.50       0.000 
HSO4-            3.85       0.00       0.000 
O2             138.42       0.00       0.100 
OH-             13.47       3.50       0.000 
S-2             12.10       5.00       0.000 
SO4-2            0.00       5.00      -0.040 

Phase      Delta H, kcal/mol 
Anhydrite        -6.46 
Aragonite        -2.59 
CH4(g)           -3.72 
CO2(g)           -4.78 
Calcite          -3.15 
Gypsum           -1.60 
H2(g)            -0.80 
H2O(g)          -10.44 
H2S(g)            0.78 
O2(g)            -2.93 
Sulfur           -9.50 

-------------------------------Phase assemblage--------------------------------

                                                      Moles in assemblage
Phase               SI  log IAP  log K(T, P)   Initial       Final       Delta

Calcite           0.00    -8.45     -8.45    1.000e+01   1.001e+01   5.737e-03
Gypsum            0.00    -4.55     -4.55    1.000e+01   9.987e+00  -1.344e-02

-----------------------------Solution composition------------------------------

	Elements           Molality       Moles

	C                 1.797e-02   1.798e-02
	Ca                1.770e-02   1.771e-02
	S                 1.344e-02   1.344e-02

----------------------------Description of solution----------------------------

                                       pH  =   6.221      Charge balance
                                       pe  =  -0.575      Adjusted to redox equilibrium
      Specific Conductance (µS/cm,  25°C)  = 3014
                          Density (g/cm³)  =   0.99950
                               Volume (L)  =   1.00402
                        Viscosity (mPa s)  =   0.90170
                        Activity of water  =   0.999
                 Ionic strength (mol/kgw)  =   5.080e-02
                       Mass of water (kg)  =   1.001e+00
                 Total alkalinity (eq/kg)  =   8.521e-03
                       Total CO2 (mol/kg)  =   1.797e-02
                         Temperature (°C)  =  25.00
                  Electrical balance (eq)  =   1.354e-12
 Percent error, 100*(Cat-|An|)/(Cat+|An|)  =   0.00
                               Iterations  =  14
                                  Total H  = 1.110860e+02
                                  Total O  = 5.563702e+01

----------------------------Distribution of species----------------------------

                                               Log       Log       Log    mole V
   Species          Molality    Activity  Molality  Activity     Gamma   cm³/mol

   H+              7.041e-07   6.007e-07    -6.152    -6.221    -0.069      0.00
   OH-             2.078e-08   1.684e-08    -7.682    -7.774    -0.091     -3.87
   H2O             5.551e+01   9.992e-01     1.744    -0.000     0.000     18.07
C(-4)         1.571e-23
   CH4             1.571e-23   1.589e-23   -22.804   -22.799     0.005     35.46
C(4)          1.797e-02
   CO2             9.454e-03   9.527e-03    -2.024    -2.021     0.003     34.79
   HCO3-           8.508e-03   7.048e-03    -2.070    -2.152    -0.082     25.06
   CaCO3           5.919e-06   5.989e-06    -5.228    -5.223     0.005    -14.60
   (CO2)2          1.464e-06   1.476e-06    -5.834    -5.831     0.003     68.75
   CO3-2           1.172e-06   5.503e-07    -5.931    -6.259    -0.328     -3.73
   CaHCO3+         4.809e-09   4.004e-09    -8.318    -8.398    -0.080      9.79
Ca            1.770e-02
   Ca+2            1.376e-02   6.479e-03    -1.861    -2.189    -0.327    -17.62
   CaSO4           3.929e-03   3.949e-03    -2.406    -2.404     0.002      7.22
   CaCO3           5.919e-06   5.989e-06    -5.228    -5.223     0.005    -14.60
   CaHSO4+         2.423e-08   1.988e-08    -7.616    -7.702    -0.086     (0)  
   CaHCO3+         4.809e-09   4.004e-09    -8.318    -8.398    -0.080      9.79
   CaOH+           2.180e-09   1.789e-09    -8.661    -8.747    -0.086     (0)  
H(0)          7.137e-15
   H2              3.568e-15   3.613e-15   -14.448   -14.442     0.005     14.99
O(0)          0.000e+00
   O2              0.000e+00   0.000e+00   -63.484   -63.479     0.005     30.40
S(-2)         5.124e-20
   H2S             4.140e-20   4.188e-20   -19.383   -19.378     0.005     36.27
   HS-             9.840e-21   7.975e-21   -20.007   -20.098    -0.091     20.79
   S-2             3.472e-27   1.603e-27   -26.459   -26.795    -0.336     (0)  
   (H2S)2          0.000e+00   0.000e+00   -40.039   -40.034     0.005     30.09
S(6)          1.344e-02
   SO4-2           9.508e-03   4.370e-03    -2.022    -2.360    -0.338     14.94
   CaSO4           3.929e-03   3.949e-03    -2.406    -2.404     0.002      7.22
   HSO4-           3.111e-07   2.552e-07    -6.507    -6.593    -0.086     40.46
   CaHSO4+         2.423e-08   1.988e-08    -7.616    -7.702    -0.086     (0)  

------------------------------Saturation indices-------------------------------

  Phase               SI** log IAP   log K(298 K,   1 atm)

  Anhydrite        -0.23     -4.55   -4.31  CaSO4
  Aragonite        -0.11     -8.45   -8.34  CaCO3
  Calcite           0.00     -8.45   -8.45  CaCO3
  CH4(g)          -20.00    -22.80   -2.80  CH4
  CO2(g)           -0.55     -2.02   -1.47  CO2
  Gypsum            0.00     -4.55   -4.55  CaSO4:2H2O
  H2(g)           -11.34    -14.44   -3.10  H2
  H2O(g)           -1.50     -0.00    1.50  H2O
  H2S(g)          -18.38    -26.32   -7.94  H2S
  O2(g)           -60.59    -63.48   -2.89  O2
  Sulfur          -12.97     -8.09    4.88  S

**For a gas, SI = log10(fugacity). Fugacity = pressure * phi / 1 atm.
  For ideal gases, phi = 1.

Reaction step 2.

Using solution 1.	
Using pure phase assemblage 1.	
Using temperature 1.	

----------------------------------User print-----------------------------------

Species        Delta H      DH a0     DH bdot 
               kcal/mol  (ion size) 
(CO2)2           6.21       0.00       0.066 
(H2S)2           3.45       0.00       0.100 
CH4            -61.04       0.00       0.100 
CO2             -1.99       0.00       0.066 
CO3-2            0.00       5.40       0.000 
Ca+2             0.00       5.00       0.165 
CaCO3            6.40       0.00       0.100 
CaHCO3+         31.26       6.00       0.000 
CaHSO4+          0.00       0.00       0.000 
CaOH+            0.00       0.00       0.000 
CaSO4            6.42       0.00       0.044 
H+               0.00       9.00       0.000 
H2              -1.76       0.00       0.105 
H2S             -3.60       0.00       0.100 
HCO3-           -1.84       5.40       0.008 
HS-            -60.14       3.50       0.000 
HSO4-            5.30       0.00       0.000 
O2             134.99       0.00       0.100 
OH-             12.36       3.50       0.000 
S-2             12.10       5.00       0.000 
SO4-2            0.00       5.00      -0.040 

Phase      Delta H, kcal/mol 
Anhydrite        -8.22 
Aragonite        -4.58 
CH4(g)           -1.86 
CO2(g)           -3.78 
Calcite          -5.33 
Gypsum           -3.83 
H2(g)            -0.18 
H2O(g)          -10.25 
H2S(g)           -0.05 
O2(g)            -1.90 
Sulfur           -9.50 

-------------------------------Phase assemblage--------------------------------

                                                      Moles in assemblage
Phase               SI  log IAP  log K(T, P)   Initial       Final       Delta

Calcite           0.00    -8.69     -8.69    1.000e+01   1.001e+01   6.653e-03
Gypsum            0.00    -4.70     -4.70    1.000e+01   9.986e+00  -1.404e-02

-----------------------------Solution composition------------------------------

	Elements           Molality       Moles

	C                 1.705e-02   1.707e-02
	Ca                1.738e-02   1.739e-02
	S                 1.403e-02   1.404e-02

----------------------------Description of solution----------------------------

                                       pH  =   6.013      Charge balance
                                       pe  =  -0.417      Adjusted to redox equilibrium
      Specific Conductance (µS/cm,  50°C)  = 4002
                          Density (g/cm³)  =   0.99038
                               Volume (L)  =   1.01328
                        Viscosity (mPa s)  =   0.55295
                        Activity of water  =   0.999
                 Ionic strength (mol/kgw)  =   4.150e-02
                       Mass of water (kg)  =   1.001e+00
                 Total alkalinity (eq/kg)  =   6.689e-03
                       Total CO2 (mol/kg)  =   1.705e-02
                         Temperature (°C)  =  50.00
                  Electrical balance (eq)  =   8.162e-12
 Percent error, 100*(Cat-|An|)/(Cat+|An|)  =   0.00
                               Iterations  =  14
                                  Total H  = 1.110884e+02
                                  Total O  = 5.563786e+01

----------------------------Distribution of species----------------------------

                                               Log       Log       Log    mole V
   Species          Molality    Activity  Molality  Activity     Gamma   cm³/mol

   H+              1.134e-06   9.704e-07    -5.945    -6.013    -0.068      0.00
   OH-             6.903e-08   5.637e-08    -7.161    -7.249    -0.088     -3.55
   H2O             5.551e+01   9.993e-01     1.744    -0.000     0.000     18.23
C(-4)         2.474e-26
   CH4             2.474e-26   2.498e-26   -25.607   -25.602     0.004     37.33
C(4)          1.705e-02
   CO2             1.036e-02   1.043e-02    -1.985    -1.982     0.003     35.97
   HCO3-           6.676e-03   5.560e-03    -2.175    -2.255    -0.079     26.07
   CaCO3           6.667e-06   6.731e-06    -5.176    -5.172     0.004    -14.53
   (CO2)2          4.756e-06   4.786e-06    -5.323    -5.320     0.003     71.11
   CO3-2           7.992e-07   3.835e-07    -6.097    -6.416    -0.319     -2.93
   CaHCO3+         3.244e-07   2.714e-07    -6.489    -6.566    -0.077     10.44
Ca            1.738e-02
   Ca+2            1.121e-02   5.383e-03    -1.950    -2.269    -0.319    -17.61
   CaSO4           6.161e-03   6.187e-03    -2.210    -2.209     0.002      9.14
   CaCO3           6.667e-06   6.731e-06    -5.176    -5.172     0.004    -14.53
   CaHCO3+         3.244e-07   2.714e-07    -6.489    -6.566    -0.077     10.44
   CaHSO4+         4.977e-08   4.103e-08    -7.303    -7.387    -0.084     (0)  
   CaOH+           1.116e-09   9.200e-10    -8.952    -9.036    -0.084     (0)  
H(0)          7.149e-15
   H2              3.574e-15   3.610e-15   -14.447   -14.442     0.004     16.42
O(0)          0.000e+00
   O2              0.000e+00   0.000e+00   -55.918   -55.914     0.004     31.92
S(-2)         6.270e-23
   H2S             4.969e-23   5.017e-23   -22.304   -22.300     0.004     40.92
   HS-             1.301e-23   1.062e-23   -22.886   -22.974    -0.088     21.34
   S-2             1.357e-29   6.417e-30   -28.867   -29.193    -0.325     (0)  
   (H2S)2          0.000e+00   0.000e+00   -45.657   -45.653     0.004     28.78
S(6)          1.403e-02
   SO4-2           7.871e-03   3.707e-03    -2.104    -2.431    -0.327     16.59
   CaSO4           6.161e-03   6.187e-03    -2.210    -2.209     0.002      9.14
   HSO4-           7.690e-07   6.340e-07    -6.114    -6.198    -0.084     41.46
   CaHSO4+         4.977e-08   4.103e-08    -7.303    -7.387    -0.084     (0)  

------------------------------Saturation indices-------------------------------

  Phase               SI** log IAP   log K(323 K,   1 atm)

  Anhydrite         0.03     -4.70   -4.73  CaSO4
  Aragonite        -0.15     -8.69   -8.54  CaCO3
  Calcite           0.00     -8.69   -8.69  CaCO3
  CH4(g)          -22.64    -25.60   -2.96  CH4
  CO2(g)           -0.27     -1.98   -1.71  CO2
  Gypsum            0.00     -4.70   -4.70  CaSO4:2H2O
  H2(g)           -11.31    -14.44   -3.13  H2
  H2O(g)           -0.92     -0.00    0.92  H2O
  H2S(g)          -21.07    -28.99   -7.91  H2S
  O2(g)           -52.88    -55.91   -3.03  O2
  Sulfur          -15.45    -11.11    4.34  S

**For a gas, SI = log10(fugacity). Fugacity = pressure * phi / 1 atm.
  For ideal gases, phi = 1.

------------------
End of simulation.
------------------

------------------------------------
Reading input data for simulation 4.
------------------------------------

