WARNING: Database file from DATABASE keyword is used; command line argument ignored.
   Input file: densities
  Output file: densities.out
Database file: ../database/Amm.dat

------------------
Reading data base.
------------------

	SOLUTION_MASTER_SPECIES
	SOLUTION_SPECIES
	PHASES
	GAS_BINARY_PARAMETERS
	EXCHANGE_MASTER_SPECIES
	EXCHANGE_SPECIES
	SURFACE_MASTER_SPECIES
	SURFACE_SPECIES
	MEAN_GAMMAS
	RATES
	END
------------------------------------
Reading input data for simulation 1.
------------------------------------

	DATABASE ../database/Amm.dat
	SELECTED_OUTPUT 101
	    file                 densities_101.sel
	USER_PUNCH 101
	    headings Mu SC
	    start
	10 PUNCH STR_F$(MU, 20, 12)
	20 PUNCH STR_F$(SC, 20, 10)
	    end
	SOLUTION_SPREAD
	    temp 10.5          # The temperature (Celsius) that is given to samples with undefined temperature. Default: 25 oC.
	    ph 7.0           # idem for pH
	    units mg/L       # Define units in (mol or g) / (L or kgw or kgs). Prefix m for milli, or u for micro. ppm = mg/kgs, ppt = ug/kgs, ppb. Default: mmol/kgw.
	temperature	pH	Na	K	Ca	Mg	Fe	Mn	Amm	Si	Cl	S(6)	Alkalinity	N(+5)	N(+3)	P	F
													as HCO3
	10.5	7.6	175	32.5	116	77.1	7.47	1.26	43.599	34.026	75.14771584	37.14420022	1491.02518	0	0	5.1714	0.271333289
	10.6	6.9	151	12.5	158	18.6	26.2	1.04	19.045	35.524	114.5908989	0.249298794	879.9115614	0	0	5.661	0.209536358
	10.5	7	277	15	180	31.1	18.7	1.04	25.054	34.454	355.5183013	0.920349583	1056.505674	0.894889382	0	5.8446	0.187078126
	10.3	7	453	24.7	216	48.7	13.7	1.23	19.951	31.886	595.9271654	3.202831548	1283.390757	3.35813214	0	5.2632	0.160350459
	10.5	7	594	34.3	280	68	14.4	1.64	16.3215	31.244	976.7996213	2.350156627	1290.14255	0	0	4.9266	0.147423573
	10.5	6.9	444	32.2	318	90.7	15.3	0.817	16.5485	24.182	836.9294588	0.22282209	944.3562299	39.62619233	11.83899293	3.8862	0.098741566
	7.7	7	135	38.5	114	102	3.81	1.69	53.974	37.236	50.02430738	30.78754015	1308.107241	0	0	8.262	0.244943651
	10.1	6.9	134	12.7	172	19.7	27.8	1.25	21.3595	37.022	123.8117716	9.86053952	1027.711209	1.0362	0.1377	4.9572	0.226766194
	10.3	7	270	15	191	31.2	21.2	1.33	25.632	34.24	363.3910367	0.467199623	1118.763599	0.070183961	0	5.202	0.188793823
	10.3	6.8	379	17.5	304	44.3	23	1.5	17.188	35.524	668.2669286	0.272167756	984.9994486	0.314222971	0	4.9572	0.167859943
	10.6	7	600	34.3	281	69.4	13.7	1.4	15.5735	32.1	860.5274893	10.85192596	1300.572874	107.3351201	113.7943674	5.8446	0.162480956
	9.9	7.1	144	33.5	135	69.9	4.89	2.51	44.6135	28.248	77.87190417	64.72155012	1311.134255	0.1112	0.1125	0.37638	0.260334016
	10.7	7	163	15	158	24.6	25.4	1.85	18.4795	35.738	117.2973125	25.02617436	915.9306296	0.1035	0	5.967	0.228947739
	10.8	6.9	267	12.4	197	24.1	31.2	1.24	21.144	34.24	340.5026932	44.53054989	990.273712	0.1492	0	5.3856	0.192266351
	10.6	7	492	26.6	221	49.8	15.7	1.2	15.41275	31.672	629.6875752	26.72605759	1143.879533	7.437159049	0.406291821	4.8348	0.215814422
	10.6	6.9	614	34.1	288	70	16.6	1.47	16.746	31.244	1000.82765	19.20207914	1357.142827	1.552997541	0	4.9878	0.167806757
	10.8	6.87	148	12.2	150	18.6	25.7	0.965	20.256	42.586	124.9708267	3.219930451	938.6825165	0	0	6.8238	0.287884837
	10.5	7.03	278	14.3	171	31.4	19.1	1.02	25.5675	40.018	305.5602642	0.442532837	960.1565989	1.776078738	1.033866569	6.7626	0.293534438
	11	6.91	458	23.7	207	48.8	15	1.1	17.454	37.022	732.188275	0.361794198	1132.305497	1.131085797	0.506630962	5.1408	0.307085732
	11.3	6.93	624	33.4	251	64.5	13.4	1.35	16.175	36.166	933.6964237	10.75034302	1200.821617	0.365253726	0.181143719	5.049	0.393543816
	7	7.06	11.74	0.975	14.3	2.04	0.137	0.0192	0.00501	1.89604	18.99329136	6.018668155	38.98125641	3.107744481	0.059164261	0.3519	0.083527672
	11.38	7.04	144	11.3	153	17.8	21.1	0.928	20.9585	43.228	126.1563	0.9733	896.973844	0.1093	0	7.2522	0.3632
	10.9	6.97	169	8.87	98	17.8	10.8	0.582	16.2215	29.96	210.4241	3.8227	574.9441311	1.3384	0.1855	6.5484	0.4156
	11.1	7.33	128	6.46	39.3	8.52	3.68	0.213	4.6955	17.7192	136.7004	10.4259	334.4246347	2.4827	0.2732	3.7638	0.5601
	11.03	6.96	442	23.2	163	41	8.28	0.816	11.9955	31.03	681.3949	4.2161	910.951872	0	0	5.3856	0.324
	7	4.02	2.021	0.0913	0.834	0.291	0.0335	0.00399	0.87015	0.048364	3.2686	2.1073	0.01	2.4706	0.0535	0.0149328	0.0248
	7	7.17	4.287	0.407	5.49	0.569	0.0402	0.00266	0.00501	0.54142	7.1165	2.5388	29.60922722	2.3	0.0555	0.149634	0.0387
	10.2	7.1	72.4	5.49	60.3	6.71	8.14	0.383	11.0865	28.89	52.8162	5.1711	366.7985858	1.8385	0.1456	6.273	0.33
	9.9	7.14	47.23	3.13	25.2	4.54	2.43	0.157	6.764	13.0112	50.4034	5.7325	173.0064644	1.2116	0.2599	3.3048	0.4001
	9.8	7.15	26.97	3.08	17.7	3.16	1.32	0.0834	2.3666	7.0834	33.5394	6.7168	95.17275513	1.7587	0.0278	0.95472	0.2395
	9.8	7.3	53.78	3.67	15	3.32	0.854	0.0743	0.00501	11.6416	46.7057	6.4113	140.3736871	1.8606	0.043	2.5092	0.6033
	8.6	7.24	23.21	2.54	21.4	2.17	2.53	0.138	5.6005	12.2194	15.4481	4.5928	137.5266428	0.9958	0.0657	3.03552	0.5443
	8.3	7.18	8.014	1.77	10.4	1.63	0.498	0.0565	4.5795	4.8792	10.8698	6.068	57.84612501	1.1395	0.1654	1.0098	0.178
	8	6.85	428	29.7	312	88.9	15.7	0.783	0	39.483	979.7518244	1.019800558	1043.006986	0.231622936	0	3.672	0.299826356
	2.6	6.42	6.651	0.429	3.39	0.617	0.0209	0.0098	0	0.455178	10.14577476	2.237270851	20.30777224	1.096398988	0	0.226746	0.065282496
	7.6	7.7	11.55	2.1	19.4	1.83	0.982	0.102	0	10.58016	9.998925817	7.109955689	106.8647865	0.027656428	0.015160908	1.8513	0.242453391
	7.1	7.4	6.286	1.08	13.9	1.97	0.223	0.0555	0	5.7138	9.805580427	6.818016802	52.37682765	0.051296078	0.04972777	0.68238	0.099645683
	8.5	7.4	10.2	1.84	17	3.02	0.429	0.0644	0	5.58754	12.80072369	16.76407149	67.37546674	0.053425051	0	0.49878	0.118607773
	8.1	7.4	6.815	2.73	16.3	3.32	0.176	0.048	3.7773	5.2537	12.029614	16.12018877	56.61111711	0	0.006772258	0.38556	0.089808791
	11.6	6.9	135	11	162	19.4	38.7	1.12	1.68865	54.9766	109.7316	0.309337453	870.6709882	0.047833504	0	11.0772	0.231427826
	11.6	6.9	266	11.4	176	29.6	28.9	1.24	0.39685	51.0604	364.321299	0.27724803	943.1452543	1.02949351	0	9.8838	0.253678755
	11.5	6.8	423	14.1	286	43.2	33.8	1.49	1.75765	52.7082	759.8898982	12.88145038	1074.119024	0.962312513	0	7.4664	0.209514967
	11.4	6.9	586	25	235	57.6	16.1	1.16	7.67575	47.3796	922.0980292	3.788319614	1209.37986	0.4725975	0	7.2522	0.303089257
	6.9	7.7	6.294	0.686	23.7	2.38	0.061	0.147	0.34745	1.079202	9.765955567	12.46130629	90.22921449	0.256253468	0.238315513	0.039168	0.189304455
	9	4.4	6.183	0.234	1.21	0.593	0.00725	0.00911	4.00755	0.049541	10.39181361	4.167206501	0.01	3.256776619	0.070335326	0.0126378	0.041026306
	8.4	7.3	6.258	0.881	35.3	3.41	0.00523	0.0123	0	1.459052	8.01271295	4.092214837	383.2018891	16.11998961	0	0.086292	0.121722606
		6.7	2.64	0.34	10.1	0.841	0.0123	0.00178	0	0.57352	4.9801	4.1031	40.12747213	4.5951	0.1204	0.074358	0.0482
	7.6	7.77	11.2	2.14	20.9	1.99	1.04	0.108	1.00395	12.1766	10.5138	8.2544	114.1393583	0.0369	0	1.97064	0.2937
	7.1	7.41	7.86	1.2	18.3	2.71	0.309	0.0782	9.7915	7.1262	11.3951	8.3341	66.90665179	0.0413	0.0183	0.70992	0.0862
	8.5	7.16	9.06	1.75	17	3.13	0.447	0.0811	9.16	7.5328	10.8783	15.9967	64.88144041	0.0179	0	0.62118	0.0796
	8.1	7.44	88.2	6.43	114	24.8	2.12	0.388	12.94	8.1748	225.1072	10.8962	336.8809255	34.7034	0	0.40698	0.1905
	8.1	6.77	455	25.1	308	88.3	21.2	0.823	8.381	38.734	1046.6074	0.6881	1065.797185	0	0	5.1408	0.2095
	11.9	6.82	134	11.1	159	19.6	37.2	1.12	0.6864	57.352	110.9886	0.5208	870.4329509	0	0	12.1482	0.2234
	11.7	6.95	251	11.2	171	28.4	25.8	1.21	1.56245	53.5	261.7667		934.6220585	0	0	10.1898	0.1437
	11.8	6.84	405	13.6	273	42.2	31.5	1.43	0.9816	54.998	743.9436	10.3068	1053.70713	0	0	7.9254	0.1491
	11.7	6.86	538	23.7	213	53.2	15.9	1.07	0	49.648	881.3277	7.0137	1144.582217	0	0	8.262	0.2419
	11	7.53	1.82	0.279	22	1.45	0.0253	0.193	0.86255	1.40598	1.5889	11.2364	68.4790077	0	0	0.085374	0.0354
	10	7.83	2.1	0.341	27.1	1.77	0.0287	0.214	5.17445	1.60714	2.324	11.2083	93.96615717	0.025	0	0.063036	0.0311
	9.1	7.35	4.57	0.444	34.4	2.1	0.0696	0.359	1.78595	1.68204	8.7511	17.7388	111.9832525	0	0	0.054162	0.0571
	9.5	7.11	164	1.79	215	21.3	0.138	2.78	0.87165	3.0602	422.3559	10.8276	506.0127501	0	0	0.094554	0.0291
	USER_GRAPH
	-plot_csv_file densities.dat
	-initial_solutions true
	-headings PHREEQC-3
	 -axis_scale x_axis 0 60 10 10 # minimum 0, maximum 350, major tics at 50, minor tics at 25
	 -axis_scale y_axis 0.999 1.003 5e-4
	-start
	 30 plot_xy cell_no, rho, line_width = 0, color = Aqua, symbol = Circle, symbol_size = 9
	-end
	USER_PRINT
	start # start of BASIC lines
	10 print RHO
	end # end of BASIC lines
	END
-------------------------------------------
Beginning of initial solution calculations.
-------------------------------------------

Initial solution 1.	

----------------------------------User print-----------------------------------

  1.0012e+00 

-----------------------------Solution composition------------------------------

	Elements           Molality       Moles

	Alkalinity        2.449e-02   2.449e-02
	Amm               2.422e-03   2.422e-03
	Ca                2.900e-03   2.900e-03
	Cl                2.124e-03   2.124e-03
	F                 1.431e-05   1.431e-05
	Fe                1.340e-04   1.340e-04
	K                 8.329e-04   8.329e-04
	Mg                3.178e-03   3.178e-03
	Mn                2.298e-05   2.298e-05
	Na                7.628e-03   7.628e-03
	P                 1.673e-04   1.673e-04
	S(6)              3.875e-04   3.875e-04
	Si                5.675e-04   5.675e-04

----------------------------Description of solution----------------------------

                                       pH  =   7.600    
                                       pe  =   4.000    
      Specific Conductance (µS/cm,  10°C)  = 1498
                          Density (g/cm³)  =   1.00123
                               Volume (L)  =   1.00094
                        Viscosity (mPa s)  =   1.29712
                        Activity of water  =   0.999
                 Ionic strength (mol/kgw)  =   3.035e-02
                       Mass of water (kg)  =   1.000e+00
                    Total carbon (mol/kg)  =   2.560e-02
                       Total CO2 (mol/kg)  =   2.560e-02
                         Temperature (°C)  =  10.50
                  Electrical balance (eq)  =  -4.240e-03
 Percent error, 100*(Cat-|An|)/(Cat+|An|)  =  -8.69
                               Iterations  =  11
                                  Total H  = 1.110414e+02
                                  Total O  = 5.558611e+01

----------------------------Distribution of species----------------------------

                                               Log       Log       Log    mole V
   Species          Molality    Activity  Molality  Activity     Gamma   cm³/mol

   OH-             1.445e-07   1.223e-07    -6.840    -6.912    -0.072     -4.82
   H+              2.867e-08   2.512e-08    -7.543    -7.600    -0.057      0.00
   H2O             5.551e+01   9.992e-01     1.744    -0.000     0.000     18.02
Amm           2.422e-03
   AmmH+           2.400e-03   2.015e-03    -2.620    -2.696    -0.076     17.25
   Amm             1.544e-05   1.555e-05    -4.811    -4.808     0.003     23.55
   AmmHSO4-        6.147e-06   5.301e-06    -5.211    -5.276    -0.064     34.31
C(4)          2.560e-02
   HCO3-           2.348e-02   2.016e-02    -1.629    -1.695    -0.066     23.36
   CO2             1.450e-03   1.457e-03    -2.839    -2.837     0.002     34.09
   MgHCO3+         3.929e-04   3.338e-04    -3.406    -3.476    -0.071      5.02
   CaCO3           5.472e-05   5.510e-05    -4.262    -4.259     0.003    -14.65
   NaHCO3          5.449e-05   5.507e-05    -4.264    -4.259     0.005     16.24
   FeHCO3+         5.076e-05   4.326e-05    -4.294    -4.364    -0.069     (0)  
   CO3-2           4.882e-05   2.648e-05    -4.311    -4.577    -0.266     -5.96
   MgCO3           2.962e-05   2.983e-05    -4.528    -4.525     0.003    -17.07
   FeCO3           1.354e-05   1.363e-05    -4.869    -4.865     0.003     (0)  
   MnHCO3+         8.022e-06   6.866e-06    -5.096    -5.163    -0.068     (0)  
   MnCO3           7.981e-06   8.036e-06    -5.098    -5.095     0.003     (0)  
   KHCO3           4.887e-06   4.921e-06    -5.311    -5.308     0.003     20.09
   (CO2)2          1.488e-08   1.495e-08    -7.827    -7.825     0.002     67.34
   CaHCO3+         1.064e-10   9.169e-11    -9.973   -10.038    -0.065      9.05
Ca            2.900e-03
   Ca+2            2.796e-03   1.518e-03    -2.553    -2.819    -0.265    -18.07
   CaCO3           5.472e-05   5.510e-05    -4.262    -4.259     0.003    -14.65
   CaHPO4          2.552e-05   2.570e-05    -4.593    -4.590     0.003     (0)  
   CaSO4           2.116e-05   2.122e-05    -4.675    -4.673     0.001      5.32
   CaPO4-          2.117e-06   1.816e-06    -5.674    -5.741    -0.066     (0)  
   CaH2PO4+        6.106e-07   5.240e-07    -6.214    -6.281    -0.066     (0)  
   CaOH+           1.176e-08   1.002e-08    -7.930    -7.999    -0.069     (0)  
   CaHCO3+         1.064e-10   9.169e-11    -9.973   -10.038    -0.065      9.05
   CaHSO4+         6.356e-12   5.418e-12   -11.197   -11.266    -0.069     (0)  
Cl            2.124e-03
   Cl-             2.124e-03   1.802e-03    -2.673    -2.744    -0.071     17.52
   FeCl+           6.262e-08   5.337e-08    -7.203    -7.273    -0.069     (0)  
   MnCl+           3.277e-08   2.805e-08    -7.485    -7.552    -0.068     -7.82
   MnCl2           2.191e-11   2.206e-11   -10.659   -10.656     0.003    108.27
   HCl             1.656e-11   1.706e-11   -10.781   -10.768     0.013     19.11
   MnCl3-          1.279e-14   1.095e-14   -13.893   -13.961    -0.068     44.02
   FeCl+2          5.561e-16   2.984e-16   -15.255   -15.525    -0.270     (0)  
   FeCl2+          4.549e-18   3.893e-18   -17.342   -17.410    -0.068     (0)  
   FeCl3           6.966e-22   7.015e-22   -21.157   -21.154     0.003     (0)  
F             1.431e-05
   F-              1.329e-05   1.125e-05    -4.876    -4.949    -0.072     -1.54
   MgF+            9.754e-07   8.319e-07    -6.011    -6.080    -0.069    -10.52
   NaF             4.158e-08   4.187e-08    -7.381    -7.378     0.003      6.58
   FeF+            2.832e-09   2.414e-09    -8.548    -8.617    -0.069     (0)  
   MnF+            3.475e-10   2.974e-10    -9.459    -9.527    -0.068     (0)  
   HF              3.269e-10   3.291e-10    -9.486    -9.483     0.003     11.67
   FeF+2           2.340e-13   1.256e-13   -12.631   -12.901    -0.270     (0)  
   FeF2+           5.483e-14   4.692e-14   -13.261   -13.329    -0.068     (0)  
   HF2-            1.450e-14   1.236e-14   -13.839   -13.908    -0.069     21.25
   FeF3            7.889e-16   7.945e-16   -15.103   -15.100     0.003     (0)  
   SiF6-2          5.288e-33   2.837e-33   -32.277   -32.547    -0.270     41.71
Fe(2)         1.076e-04
   FeHCO3+         5.076e-05   4.326e-05    -4.294    -4.364    -0.069     (0)  
   Fe+2            3.895e-05   2.146e-05    -4.409    -4.668    -0.259    -22.92
   FeCO3           1.354e-05   1.363e-05    -4.869    -4.865     0.003     (0)  
   FeHPO4          3.483e-06   3.508e-06    -5.458    -5.455     0.003     (0)  
   FeSO4           4.689e-07   4.722e-07    -6.329    -6.326     0.003     29.04
   FeH2PO4+        2.268e-07   1.946e-07    -6.644    -6.711    -0.066     (0)  
   FeOH+           1.010e-07   8.643e-08    -6.996    -7.063    -0.068     (0)  
   FeCl+           6.262e-08   5.337e-08    -7.203    -7.273    -0.069     (0)  
   FeF+            2.832e-09   2.414e-09    -8.548    -8.617    -0.069     (0)  
   Fe(OH)2         7.719e-12   7.774e-12   -11.112   -11.109     0.003     (0)  
   FeHSO4+         8.987e-14   7.660e-14   -13.046   -13.116    -0.069     (0)  
   Fe(OH)3-        1.156e-14   9.892e-15   -13.937   -14.005    -0.068     (0)  
Fe(3)         2.645e-05
   Fe(OH)3         1.801e-05   1.814e-05    -4.744    -4.741     0.003     (0)  
   Fe(OH)2+        8.015e-06   6.879e-06    -5.096    -5.162    -0.066     (0)  
   Fe(OH)4-        4.156e-07   3.567e-07    -6.381    -6.448    -0.066     (0)  
   FeOH+2          1.735e-09   9.309e-10    -8.761    -9.031    -0.270     (0)  
   FeF+2           2.340e-13   1.256e-13   -12.631   -12.901    -0.270     (0)  
   FeH2PO4+2       7.982e-14   4.329e-14   -13.098   -13.364    -0.266     (0)  
   FeHPO4+         6.984e-14   5.977e-14   -13.156   -13.223    -0.068     (0)  
   FeF2+           5.483e-14   4.692e-14   -13.261   -13.329    -0.068     (0)  
   Fe+3            2.923e-14   8.890e-15   -13.534   -14.051    -0.517     (0)  
   FeSO4+          1.329e-14   1.138e-14   -13.876   -13.944    -0.068     (0)  
   FeF3            7.889e-16   7.945e-16   -15.103   -15.100     0.003     (0)  
   Fe2(OH)2+4      5.643e-16   4.378e-17   -15.248   -16.359    -1.110     (0)  
   FeCl+2          5.561e-16   2.984e-16   -15.255   -15.525    -0.270     (0)  
   Fe(SO4)2-       4.499e-17   3.834e-17   -16.347   -16.416    -0.069     (0)  
   Fe3(OH)4+5      1.394e-17   2.568e-19   -16.856   -18.590    -1.735     (0)  
   FeCl2+          4.549e-18   3.893e-18   -17.342   -17.410    -0.068     (0)  
   FeHSO4+2        1.510e-21   7.971e-22   -20.821   -21.098    -0.278     (0)  
   FeCl3           6.966e-22   7.015e-22   -21.157   -21.154     0.003     (0)  
H(0)          1.032e-26
   H2              5.161e-27   5.199e-27   -26.287   -26.284     0.003     13.69
K             8.329e-04
   K+              8.260e-04   6.999e-04    -3.083    -3.155    -0.072      8.53
   KHCO3           4.887e-06   4.921e-06    -5.311    -5.308     0.003     20.09
   KSO4-           1.931e-06   1.679e-06    -5.714    -5.775    -0.061     23.17
   KHPO4-          6.530e-08   5.604e-08    -7.185    -7.252    -0.066     39.50
Mg            3.178e-03
   Mg+2            2.674e-03   1.475e-03    -2.573    -2.831    -0.258    -20.91
   MgHCO3+         3.929e-04   3.338e-04    -3.406    -3.476    -0.071      5.02
   MgSO4           4.278e-05   4.338e-05    -4.369    -4.363     0.006     -1.96
   MgHPO4          3.354e-05   3.377e-05    -4.474    -4.471     0.003     (0)  
   MgCO3           2.962e-05   2.983e-05    -4.528    -4.525     0.003    -17.07
   MgPO4-          2.775e-06   2.381e-06    -5.557    -5.623    -0.066     (0)  
   MgF+            9.754e-07   8.319e-07    -6.011    -6.080    -0.069    -10.52
   MgH2PO4+        7.557e-07   6.485e-07    -6.122    -6.188    -0.066     (0)  
   MgOH+           6.225e-08   5.379e-08    -7.206    -7.269    -0.063     (0)  
   Mg(SO4)2-2      5.481e-08   3.104e-08    -7.261    -7.508    -0.247     34.72
Mn(2)         2.298e-05
   MnHCO3+         8.022e-06   6.866e-06    -5.096    -5.163    -0.068     (0)  
   MnCO3           7.981e-06   8.036e-06    -5.098    -5.095     0.003     (0)  
   Mn+2            6.936e-06   3.821e-06    -5.159    -5.418    -0.259    -19.56
   MnCl+           3.277e-08   2.805e-08    -7.485    -7.552    -0.068     -7.82
   MnSO4           1.032e-08   1.025e-08    -7.986    -7.989    -0.003     16.94
   MnOH+           1.318e-09   1.128e-09    -8.880    -8.948    -0.068     (0)  
   MnF+            3.475e-10   2.974e-10    -9.459    -9.527    -0.068     (0)  
   MnCl2           2.191e-11   2.206e-11   -10.659   -10.656     0.003    108.27
   MnCl3-          1.279e-14   1.095e-14   -13.893   -13.961    -0.068     44.02
   Mn(OH)3-        4.454e-18   3.812e-18   -17.351   -17.419    -0.068     (0)  
Mn(3)         4.191e-28
   Mn+3            4.191e-28   1.275e-28   -27.378   -27.895    -0.517     (0)  
Na            7.628e-03
   Na+             7.564e-03   6.468e-03    -2.121    -2.189    -0.068     -2.23
   NaHCO3          5.449e-05   5.507e-05    -4.264    -4.259     0.005     16.24
   NaSO4-          9.265e-06   7.901e-06    -5.033    -5.102    -0.069     16.64
   NaHPO4-         6.034e-07   5.178e-07    -6.219    -6.286    -0.066     35.64
   NaF             4.158e-08   4.187e-08    -7.381    -7.378     0.003      6.58
   Na2SO4          5.312e-12   5.345e-12   -11.275   -11.272     0.003     56.91
O(0)          0.000e+00
   O2              0.000e+00   0.000e+00   -44.875   -44.872     0.003     29.01
P             1.673e-04
   HPO4-2          7.653e-05   4.106e-05    -4.116    -4.387    -0.270      7.48
   MgHPO4          3.354e-05   3.377e-05    -4.474    -4.471     0.003     (0)  
   CaHPO4          2.552e-05   2.570e-05    -4.593    -4.590     0.003     (0)  
   H2PO4-          2.108e-05   1.809e-05    -4.676    -4.742    -0.066     33.65
   FeHPO4          3.483e-06   3.508e-06    -5.458    -5.455     0.003     (0)  
   MgPO4-          2.775e-06   2.381e-06    -5.557    -5.623    -0.066     (0)  
   CaPO4-          2.117e-06   1.816e-06    -5.674    -5.741    -0.066     (0)  
   MgH2PO4+        7.557e-07   6.485e-07    -6.122    -6.188    -0.066     (0)  
   CaH2PO4+        6.106e-07   5.240e-07    -6.214    -6.281    -0.066     (0)  
   NaHPO4-         6.034e-07   5.178e-07    -6.219    -6.286    -0.066     35.64
   FeH2PO4+        2.268e-07   1.946e-07    -6.644    -6.711    -0.066     (0)  
   KHPO4-          6.530e-08   5.604e-08    -7.185    -7.252    -0.066     39.50
   PO4-3           2.353e-09   5.435e-10    -8.628    -9.265    -0.637    -21.06
   H3PO4           5.541e-11   5.580e-11   -10.256   -10.253     0.003     46.42
   FeH2PO4+2       7.982e-14   4.329e-14   -13.098   -13.364    -0.266     (0)  
   FeHPO4+         6.984e-14   5.977e-14   -13.156   -13.223    -0.068     (0)  
S(6)          3.875e-04
   SO4-2           3.056e-04   1.635e-04    -3.515    -3.786    -0.272     11.93
   MgSO4           4.278e-05   4.338e-05    -4.369    -4.363     0.006     -1.96
   CaSO4           2.116e-05   2.122e-05    -4.675    -4.673     0.001      5.32
   NaSO4-          9.265e-06   7.901e-06    -5.033    -5.102    -0.069     16.64
   AmmHSO4-        6.147e-06   5.301e-06    -5.211    -5.276    -0.064     34.31
   KSO4-           1.931e-06   1.679e-06    -5.714    -5.775    -0.061     23.17
   FeSO4           4.689e-07   4.722e-07    -6.329    -6.326     0.003     29.04
   Mg(SO4)2-2      5.481e-08   3.104e-08    -7.261    -7.508    -0.247     34.72
   MnSO4           1.032e-08   1.025e-08    -7.986    -7.989    -0.003     16.94
   HSO4-           3.483e-10   2.969e-10    -9.458    -9.527    -0.069     39.07
   CaHSO4+         6.356e-12   5.418e-12   -11.197   -11.266    -0.069     (0)  
   Na2SO4          5.312e-12   5.345e-12   -11.275   -11.272     0.003     56.91
   FeHSO4+         8.987e-14   7.660e-14   -13.046   -13.116    -0.069     (0)  
   FeSO4+          1.329e-14   1.138e-14   -13.876   -13.944    -0.068     (0)  
   Fe(SO4)2-       4.499e-17   3.834e-17   -16.347   -16.416    -0.069     (0)  
   FeHSO4+2        1.510e-21   7.971e-22   -20.821   -21.098    -0.278     (0)  
Si            5.675e-04
   H4SiO4          5.652e-04   5.692e-04    -3.248    -3.245     0.003     53.60
   H3SiO4-         2.256e-06   1.917e-06    -5.647    -5.717    -0.071     27.53
   H2SiO4-2        3.417e-12   1.853e-12   -11.466   -11.732    -0.266     (0)  
   SiF6-2          5.288e-33   2.837e-33   -32.277   -32.547    -0.270     41.71

------------------------------Saturation indices-------------------------------

  Phase               SI** log IAP   log K(283 K,   1 atm)

  Amm(g)           -6.93     -4.81    2.12  Amm
  Anhydrite        -2.51     -6.61   -4.09  CaSO4
  Aragonite         0.86     -7.40   -8.26  CaCO3
  Arcanite         -8.00    -10.10   -2.10  K2SO4
  Calcite           0.96     -7.40   -8.35  CaCO3
  Chalcedony        0.48     -3.24   -3.73  SiO2
  Chrysotile       -3.47     30.62   34.09  Mg3Si2O5(OH)4
  CO2(g)           -1.56     -2.84   -1.28  CO2
  Dolomite          2.08    -14.80  -16.89  CaMg(CO3)2
  Epsomite         -4.79     -6.62   -1.83  MgSO4:7H2O
  Fe(OH)3(a)        3.86      8.75    4.89  Fe(OH)3
  Fluorite         -1.93    -12.72  -10.79  CaF2
  Goethite          9.21      8.75   -0.46  FeOOH
  Gypsum           -2.09     -6.61   -4.51  CaSO4:2H2O
  H2(g)           -23.22    -26.28   -3.06  H2
  H2O(g)           -1.90     -0.00    1.90  H2O
  Halite           -6.49     -4.93    1.56  NaCl
  Hausmannite     -12.26     52.55   64.80  Mn3O4
  Hematite         20.35     17.50   -2.85  Fe2O3
  Hexahydrite      -5.03     -6.62   -1.59  MgSO4:6H2O
  Hydroxyapatite    5.21      3.15   -2.07  Ca5(PO4)3OH
  Jarosite-K        0.75     -7.28   -8.04  KFe3(SO4)2(OH)6
  Kieserite        -5.31     -6.62   -1.31  MgSO4:H2O
  Manganite        -3.96     21.38   25.34  MnOOH
  Melanterite      -6.05     -8.46   -2.40  FeSO4:7H2O
  Mirabilite       -6.44     -8.17   -1.72  Na2SO4:10H2O
  O2(g)           -42.10    -44.87   -2.77  O2
  Pyrochroite      -5.42      9.78   15.20  Mn(OH)2
  Pyrolusite      -10.84     32.98   43.82  MnO2:H2O
  Quartz            0.96     -3.24   -4.20  SiO2
  Rhodochrosite     1.08     -9.99  -11.08  MnCO3
  Sepiolite        -1.16     15.00   16.16  Mg2Si3O7.5OH:3H2O
  Sepiolite(d)     -3.66     15.00   18.66  Mg2Si3O7.5OH:3H2O
  Siderite          1.55     -9.25  -10.80  FeCO3
  SiO2(a)          -0.41     -3.24   -2.84  SiO2
  Sylvite          -6.72     -5.90    0.82  KCl
  Talc              0.99     24.13   23.14  Mg3Si4O10(OH)2
  Thenardite       -9.00     -8.16    0.84  Na2SO4
  Vivianite         3.46    -32.54  -36.00  Fe3(PO4)2:8H2O

**For a gas, SI = log10(fugacity). Fugacity = pressure * phi / 1 atm.
  For ideal gases, phi = 1.

Initial solution 2.	

----------------------------------User print-----------------------------------

  1.0008e+00 

-----------------------------Solution composition------------------------------

	Elements           Molality       Moles

	Alkalinity        1.444e-02   1.444e-02
	Amm               1.057e-03   1.057e-03
	Ca                3.948e-03   3.948e-03
	Cl                3.237e-03   3.237e-03
	F                 1.104e-05   1.104e-05
	Fe                4.698e-04   4.698e-04
	K                 3.201e-04   3.201e-04
	Mg                7.661e-04   7.661e-04
	Mn                1.896e-05   1.896e-05
	Na                6.577e-03   6.577e-03
	P                 1.830e-04   1.830e-04
	S(6)              2.599e-06   2.599e-06
	Si                5.921e-04   5.921e-04

----------------------------Description of solution----------------------------

                                       pH  =   6.900    
                                       pe  =   4.000    
      Specific Conductance (µS/cm,  11°C)  = 1139
                          Density (g/cm³)  =   1.00080
                               Volume (L)  =   1.00084
                        Viscosity (mPa s)  =   1.29105
                        Activity of water  =   0.999
                 Ionic strength (mol/kgw)  =   2.256e-02
                       Mass of water (kg)  =   1.000e+00
                    Total carbon (mol/kg)  =   1.870e-02
                       Total CO2 (mol/kg)  =   1.870e-02
                         Temperature (°C)  =  10.60
                  Electrical balance (eq)  =   4.803e-04
 Percent error, 100*(Cat-|An|)/(Cat+|An|)  =   1.36
                               Iterations  =  10 (21 overall)
                                  Total H  = 1.110304e+02
                                  Total O  = 5.556105e+01

----------------------------Distribution of species----------------------------

                                               Log       Log       Log    mole V
   Species          Molality    Activity  Molality  Activity     Gamma   cm³/mol

   H+              1.419e-07   1.259e-07    -6.848    -6.900    -0.052      0.00
   OH-             2.853e-08   2.463e-08    -7.545    -7.609    -0.064     -4.84
   H2O             5.551e+01   9.994e-01     1.744    -0.000     0.000     18.02
Amm           1.057e-03
   AmmH+           1.056e-03   9.056e-04    -2.976    -3.043    -0.067     17.23
   Amm             1.398e-06   1.405e-06    -5.855    -5.852     0.002     23.56
   AmmHSO4-        2.064e-08   1.808e-08    -7.685    -7.743    -0.057     34.13
C(4)          1.870e-02
   HCO3-           1.398e-02   1.220e-02    -1.854    -1.913    -0.059     23.31
   CO2             4.394e-03   4.409e-03    -2.357    -2.356     0.001     34.09
   FeHCO3+         1.964e-04   1.704e-04    -3.707    -3.769    -0.062     (0)  
   MgHCO3+         6.439e-05   5.575e-05    -4.191    -4.254    -0.063      5.01
   NaHCO3          2.916e-05   2.939e-05    -4.535    -4.532     0.003     16.25
   FeCO3           1.068e-05   1.074e-05    -4.971    -4.969     0.002     (0)  
   CaCO3           9.916e-06   9.967e-06    -5.004    -5.001     0.002    -14.65
   MnHCO3+         7.356e-06   6.405e-06    -5.133    -5.194    -0.060     (0)  
   CO3-2           5.532e-06   3.207e-06    -5.257    -5.494    -0.237     -6.06
   MnCO3           1.492e-06   1.500e-06    -5.826    -5.824     0.002     (0)  
   KHCO3           1.169e-06   1.175e-06    -5.932    -5.930     0.002     20.10
   MgCO3           9.930e-07   9.981e-07    -6.003    -6.001     0.002    -17.07
   (CO2)2          1.374e-07   1.378e-07    -6.862    -6.861     0.001     67.35
   CaHCO3+         9.706e-11   8.496e-11   -10.013   -10.071    -0.058      9.04
Ca            3.948e-03
   Ca+2            3.907e-03   2.265e-03    -2.408    -2.645    -0.237    -18.12
   CaHPO4          2.696e-05   2.710e-05    -4.569    -4.567     0.002     (0)  
   CaCO3           9.916e-06   9.967e-06    -5.004    -5.001     0.002    -14.65
   CaH2PO4+        3.171e-06   2.767e-06    -5.499    -5.558    -0.059     (0)  
   CaPO4-          4.388e-07   3.829e-07    -6.358    -6.417    -0.059     (0)  
   CaSO4           2.401e-07   2.406e-07    -6.620    -6.619     0.001      5.34
   CaOH+           3.440e-09   2.984e-09    -8.463    -8.525    -0.062     (0)  
   CaHCO3+         9.706e-11   8.496e-11   -10.013   -10.071    -0.058      9.04
   CaHSO4+         3.543e-13   3.074e-13   -12.451   -12.512    -0.062     (0)  
Cl            3.237e-03
   Cl-             3.236e-03   2.798e-03    -2.490    -2.553    -0.063     17.51
   FeCl+           6.214e-07   5.391e-07    -6.207    -6.268    -0.062     (0)  
   MnCl+           7.708e-08   6.712e-08    -7.113    -7.173    -0.060     -7.79
   HCl             1.298e-10   1.327e-10    -9.887    -9.877     0.010     19.12
   MnCl2           8.155e-11   8.198e-11   -10.089   -10.086     0.002    108.07
   MnCl3-          7.255e-14   6.317e-14   -13.139   -13.199    -0.060     43.98
   FeCl+2          5.294e-15   3.043e-15   -14.276   -14.517    -0.240     (0)  
   FeCl2+          7.057e-17   6.144e-17   -16.151   -16.212    -0.060     (0)  
   FeCl3           1.710e-20   1.719e-20   -19.767   -19.765     0.002     (0)  
F             1.104e-05
   F-              1.078e-05   9.304e-06    -4.967    -5.031    -0.064     -1.56
   MgF+            2.190e-07   1.901e-07    -6.660    -6.721    -0.061    -10.53
   NaF             3.034e-08   3.050e-08    -7.518    -7.516     0.002      6.59
   FeF+            1.497e-08   1.299e-08    -7.825    -7.886    -0.062     (0)  
   HF              1.359e-09   1.367e-09    -8.867    -8.864     0.002     11.68
   MnF+            4.353e-10   3.790e-10    -9.361    -9.421    -0.060     (0)  
   FeF+2           1.184e-12   6.808e-13   -11.927   -12.167    -0.240     (0)  
   FeF2+           2.419e-13   2.107e-13   -12.616   -12.676    -0.060     (0)  
   HF2-            4.896e-14   4.247e-14   -13.310   -13.372    -0.062     21.24
   FeF3            2.935e-15   2.951e-15   -14.532   -14.530     0.002     (0)  
   SiF6-2          1.030e-30   5.919e-31   -29.987   -30.228    -0.240     41.65
Fe(2)         4.668e-04
   Fe+2            2.378e-04   1.396e-04    -3.624    -3.855    -0.231    -22.96
   FeHCO3+         1.964e-04   1.704e-04    -3.707    -3.769    -0.062     (0)  
   FeHPO4          1.600e-05   1.609e-05    -4.796    -4.794     0.002     (0)  
   FeCO3           1.068e-05   1.074e-05    -4.971    -4.969     0.002     (0)  
   FeH2PO4+        5.122e-06   4.469e-06    -5.291    -5.350    -0.059     (0)  
   FeCl+           6.214e-07   5.391e-07    -6.207    -6.268    -0.062     (0)  
   FeOH+           1.299e-07   1.131e-07    -6.886    -6.946    -0.060     (0)  
   FeSO4           2.318e-08   2.330e-08    -7.635    -7.633     0.002     29.05
   FeF+            1.497e-08   1.299e-08    -7.825    -7.886    -0.062     (0)  
   Fe(OH)2         2.039e-12   2.050e-12   -11.691   -11.688     0.002     (0)  
   FeHSO4+         2.184e-14   1.894e-14   -13.661   -13.723    -0.062     (0)  
   Fe(OH)3-        5.985e-16   5.211e-16   -15.223   -15.283    -0.060     (0)  
Fe(3)         3.036e-06
   Fe(OH)2+        2.077e-06   1.812e-06    -5.683    -5.742    -0.059     (0)  
   Fe(OH)3         9.532e-07   9.582e-07    -6.021    -6.019     0.002     (0)  
   Fe(OH)4-        4.328e-09   3.777e-09    -8.364    -8.423    -0.059     (0)  
   FeOH+2          2.129e-09   1.224e-09    -8.672    -8.912    -0.240     (0)  
   FeH2PO4+2       1.726e-12   1.000e-12   -11.763   -12.000    -0.237     (0)  
   FeF+2           1.184e-12   6.808e-13   -11.927   -12.167    -0.240     (0)  
   FeHPO4+         3.178e-13   2.767e-13   -12.498   -12.558    -0.060     (0)  
   FeF2+           2.419e-13   2.107e-13   -12.616   -12.676    -0.060     (0)  
   Fe+3            1.707e-13   5.818e-14   -12.768   -13.235    -0.467     (0)  
   FeCl+2          5.294e-15   3.043e-15   -14.276   -14.517    -0.240     (0)  
   FeF3            2.935e-15   2.951e-15   -14.532   -14.530     0.002     (0)  
   Fe2(OH)2+4      7.313e-16   7.531e-17   -15.136   -16.123    -0.987     (0)  
   FeSO4+          6.489e-16   5.650e-16   -15.188   -15.248    -0.060     (0)  
   FeCl2+          7.057e-17   6.144e-17   -16.151   -16.212    -0.060     (0)  
   Fe3(OH)4+5      4.017e-18   1.152e-19   -17.396   -18.939    -1.543     (0)  
   FeCl3           1.710e-20   1.719e-20   -19.767   -19.765     0.002     (0)  
   Fe(SO4)2-       1.663e-20   1.443e-20   -19.779   -19.841    -0.062     (0)  
   FeHSO4+2        3.501e-22   1.983e-22   -21.456   -21.703    -0.247     (0)  
H(0)          2.595e-25
   H2              1.297e-25   1.304e-25   -24.887   -24.885     0.002     13.70
K             3.201e-04
   K+              3.189e-04   2.755e-04    -3.496    -3.560    -0.064      8.52
   KHCO3           1.169e-06   1.175e-06    -5.932    -5.930     0.002     20.10
   KHPO4-          1.782e-08   1.555e-08    -7.749    -7.808    -0.059     39.46
   KSO4-           5.679e-09   5.004e-09    -8.246    -8.301    -0.055     22.56
Mg            7.661e-04
   Mg+2            6.931e-04   4.069e-04    -3.159    -3.391    -0.231    -20.96
   MgHCO3+         6.439e-05   5.575e-05    -4.191    -4.254    -0.063      5.01
   MgHPO4          6.547e-06   6.581e-06    -5.184    -5.182     0.002     (0)  
   MgCO3           9.930e-07   9.981e-07    -6.003    -6.001     0.002    -17.07
   MgH2PO4+        7.254e-07   6.330e-07    -6.139    -6.199    -0.059     (0)  
   MgF+            2.190e-07   1.901e-07    -6.660    -6.721    -0.061    -10.53
   MgPO4-          1.063e-07   9.277e-08    -6.973    -7.033    -0.059     (0)  
   MgSO4           8.989e-08   9.083e-08    -7.046    -7.042     0.005     -1.94
   MgOH+           3.408e-09   2.991e-09    -8.467    -8.524    -0.057     (0)  
   Mg(SO4)2-2      8.185e-13   4.911e-13   -12.087   -12.309    -0.222     34.20
Mn(2)         1.896e-05
   Mn+2            1.003e-05   5.888e-06    -4.999    -5.230    -0.231    -19.77
   MnHCO3+         7.356e-06   6.405e-06    -5.133    -5.194    -0.060     (0)  
   MnCO3           1.492e-06   1.500e-06    -5.826    -5.824     0.002     (0)  
   MnCl+           7.708e-08   6.712e-08    -7.113    -7.173    -0.060     -7.79
   MnF+            4.353e-10   3.790e-10    -9.361    -9.421    -0.060     (0)  
   MnOH+           4.020e-10   3.500e-10    -9.396    -9.456    -0.060     (0)  
   MnSO4           1.206e-10   1.200e-10    -9.919    -9.921    -0.002     16.94
   MnCl2           8.155e-11   8.198e-11   -10.089   -10.086     0.002    108.07
   MnCl3-          7.255e-14   6.317e-14   -13.139   -13.199    -0.060     43.98
   Mn(OH)3-        5.362e-20   4.669e-20   -19.271   -19.331    -0.060     (0)  
Mn(3)         5.858e-28
   Mn+3            5.858e-28   1.996e-28   -27.232   -27.700    -0.467     (0)  
Na            6.577e-03
   Na+             6.548e-03   5.696e-03    -2.184    -2.244    -0.061     -2.26
   NaHCO3          2.916e-05   2.939e-05    -4.535    -4.532     0.003     16.25
   NaHPO4-         3.684e-07   3.215e-07    -6.434    -6.493    -0.059     35.18
   NaSO4-          6.077e-08   5.274e-08    -7.216    -7.278    -0.061     16.51
   NaF             3.034e-08   3.050e-08    -7.518    -7.516     0.002      6.59
   Na2SO4          3.163e-14   3.178e-14   -13.500   -13.498     0.002     56.84
O(0)          0.000e+00
   O2              0.000e+00   0.000e+00   -47.636   -47.634     0.002     29.02
P             1.830e-04
   H2PO4-          7.321e-05   6.389e-05    -4.135    -4.195    -0.059     33.63
   HPO4-2          5.036e-05   2.895e-05    -4.298    -4.538    -0.240      7.40
   CaHPO4          2.696e-05   2.710e-05    -4.569    -4.567     0.002     (0)  
   FeHPO4          1.600e-05   1.609e-05    -4.796    -4.794     0.002     (0)  
   MgHPO4          6.547e-06   6.581e-06    -5.184    -5.182     0.002     (0)  
   FeH2PO4+        5.122e-06   4.469e-06    -5.291    -5.350    -0.059     (0)  
   CaH2PO4+        3.171e-06   2.767e-06    -5.499    -5.558    -0.059     (0)  
   MgH2PO4+        7.254e-07   6.330e-07    -6.139    -6.199    -0.059     (0)  
   CaPO4-          4.388e-07   3.829e-07    -6.358    -6.417    -0.059     (0)  
   NaHPO4-         3.684e-07   3.215e-07    -6.434    -6.493    -0.059     35.18
   MgPO4-          1.063e-07   9.277e-08    -6.973    -7.033    -0.059     (0)  
   KHPO4-          1.782e-08   1.555e-08    -7.749    -7.808    -0.059     39.46
   H3PO4           9.836e-10   9.887e-10    -9.007    -9.005     0.002     46.43
   PO4-3           2.803e-10   7.661e-11    -9.552   -10.116    -0.563    -21.24
   FeH2PO4+2       1.726e-12   1.000e-12   -11.763   -12.000    -0.237     (0)  
   FeHPO4+         3.178e-13   2.767e-13   -12.498   -12.558    -0.060     (0)  
S(6)          2.599e-06
   SO4-2           2.158e-06   1.238e-06    -5.666    -5.907    -0.241     11.91
   CaSO4           2.401e-07   2.406e-07    -6.620    -6.619     0.001      5.34
   MgSO4           8.989e-08   9.083e-08    -7.046    -7.042     0.005     -1.94
   NaSO4-          6.077e-08   5.274e-08    -7.216    -7.278    -0.061     16.51
   FeSO4           2.318e-08   2.330e-08    -7.635    -7.633     0.002     29.05
   AmmHSO4-        2.064e-08   1.808e-08    -7.685    -7.743    -0.057     34.13
   KSO4-           5.679e-09   5.004e-09    -8.246    -8.301    -0.055     22.56
   MnSO4           1.206e-10   1.200e-10    -9.919    -9.921    -0.002     16.94
   HSO4-           1.301e-11   1.129e-11   -10.886   -10.947    -0.062     39.06
   Mg(SO4)2-2      8.185e-13   4.911e-13   -12.087   -12.309    -0.222     34.20
   CaHSO4+         3.543e-13   3.074e-13   -12.451   -12.512    -0.062     (0)  
   Na2SO4          3.163e-14   3.178e-14   -13.500   -13.498     0.002     56.84
   FeHSO4+         2.184e-14   1.894e-14   -13.661   -13.723    -0.062     (0)  
   FeSO4+          6.489e-16   5.650e-16   -15.188   -15.248    -0.060     (0)  
   Fe(SO4)2-       1.663e-20   1.443e-20   -19.779   -19.841    -0.062     (0)  
   FeHSO4+2        3.501e-22   1.983e-22   -21.456   -21.703    -0.247     (0)  
Si            5.921e-04
   H4SiO4          5.916e-04   5.947e-04    -3.228    -3.226     0.002     53.59
   H3SiO4-         4.635e-07   4.013e-07    -6.334    -6.397    -0.063     27.52
   H2SiO4-2        1.346e-13   7.802e-14   -12.871   -13.108    -0.237     (0)  
   SiF6-2          1.030e-30   5.919e-31   -29.987   -30.228    -0.240     41.65

------------------------------Saturation indices-------------------------------

  Phase               SI** log IAP   log K(283 K,   1 atm)

  Amm(g)           -7.97     -5.85    2.11  Amm
  Anhydrite        -4.46     -8.55   -4.09  CaSO4
  Aragonite         0.12     -8.14   -8.26  CaCO3
  Arcanite        -10.93    -13.03   -2.10  K2SO4
  Calcite           0.21     -8.14   -8.35  CaCO3
  Chalcedony        0.50     -3.23   -3.73  SiO2
  Chrysotile       -9.30     24.78   34.07  Mg3Si2O5(OH)4
  CO2(g)           -1.08     -2.36   -1.28  CO2
  Dolomite         -0.14    -17.02  -16.89  CaMg(CO3)2
  Epsomite         -7.47     -9.30   -1.83  MgSO4:7H2O
  Fe(OH)3(a)        2.57      7.46    4.89  Fe(OH)3
  Fluorite         -1.92    -12.71  -10.79  CaF2
  Goethite          7.93      7.46   -0.46  FeOOH
  Gypsum           -4.04     -8.55   -4.51  CaSO4:2H2O
  H2(g)           -21.82    -24.88   -3.06  H2
  H2O(g)           -1.89     -0.00    1.89  H2O
  Halite           -6.36     -4.80    1.56  NaCl
  Hausmannite     -17.26     47.51   64.77  Mn3O4
  Hematite         17.79     14.93   -2.86  Fe2O3
  Hexahydrite      -7.71     -9.30   -1.59  MgSO4:6H2O
  Hydroxyapatite    2.84      0.76   -2.08  Ca5(PO4)3OH
  Jarosite-K       -5.64    -13.68   -8.05  KFe3(SO4)2(OH)6
  Kieserite        -7.99     -9.30   -1.30  MgSO4:H2O
  Manganite        -5.87     19.47   25.34  MnOOH
  Melanterite      -7.36     -9.76   -2.40  FeSO4:7H2O
  Mirabilite       -8.68    -10.40   -1.72  Na2SO4:10H2O
  O2(g)           -44.86    -47.63   -2.77  O2
  Pyrochroite      -6.63      8.57   15.20  Mn(OH)2
  Pyrolusite      -13.43     30.37   43.80  MnO2:H2O
  Quartz            0.98     -3.23   -4.20  SiO2
  Rhodochrosite     0.35    -10.72  -11.08  MnCO3
  Sepiolite        -5.02     11.14   16.16  Mg2Si3O7.5OH:3H2O
  Sepiolite(d)     -7.52     11.14   18.66  Mg2Si3O7.5OH:3H2O
  Siderite          1.45     -9.35  -10.80  FeCO3
  SiO2(a)          -0.39     -3.23   -2.84  SiO2
  Sylvite          -6.94     -6.11    0.82  KCl
  Talc             -4.80     18.33   23.12  Mg3Si4O10(OH)2
  Thenardite      -11.23    -10.40    0.84  Na2SO4
  Vivianite         4.20    -31.80  -36.00  Fe3(PO4)2:8H2O

**For a gas, SI = log10(fugacity). Fugacity = pressure * phi / 1 atm.
  For ideal gases, phi = 1.

Initial solution 3.	

----------------------------------User print-----------------------------------

  1.0012e+00 

-----------------------------Solution composition------------------------------

	Elements           Molality       Moles

	Alkalinity        1.735e-02   1.735e-02
	Amm               1.392e-03   1.392e-03
	Ca                4.500e-03   4.500e-03
	Cl                1.005e-02   1.005e-02
	F                 9.867e-06   9.867e-06
	Fe                3.355e-04   3.355e-04
	K                 3.844e-04   3.844e-04
	Mg                1.282e-03   1.282e-03
	Mn                1.897e-05   1.897e-05
	N(5)              1.446e-05   1.446e-05
	Na                1.207e-02   1.207e-02
	P                 1.891e-04   1.891e-04
	S(6)              9.600e-06   9.600e-06
	Si                5.746e-04   5.746e-04

----------------------------Description of solution----------------------------

                                       pH  =   7.000    
                                       pe  =   4.000    
      Specific Conductance (µS/cm,  10°C)  = 1776
                          Density (g/cm³)  =   1.00123
                               Volume (L)  =   1.00098
                        Viscosity (mPa s)  =   1.29596
                        Activity of water  =   0.999
                 Ionic strength (mol/kgw)  =   3.220e-02
                       Mass of water (kg)  =   1.000e+00
                    Total carbon (mol/kg)  =   2.131e-02
                       Total CO2 (mol/kg)  =   2.131e-02
                         Temperature (°C)  =  10.50
                  Electrical balance (eq)  =  -1.511e-03
 Percent error, 100*(Cat-|An|)/(Cat+|An|)  =  -2.87
                               Iterations  =  11 (32 overall)
                                  Total H  = 1.110335e+02
                                  Total O  = 5.556917e+01

----------------------------Distribution of species----------------------------

                                               Log       Log       Log    mole V
   Species          Molality    Activity  Molality  Activity     Gamma   cm³/mol

   H+              1.144e-07   1.000e-07    -6.941    -7.000    -0.059      0.00
   OH-             3.645e-08   3.072e-08    -7.438    -7.513    -0.074     -4.81
   H2O             5.551e+01   9.991e-01     1.744    -0.000     0.000     18.02
Amm           1.392e-03
   AmmH+           1.389e-03   1.161e-03    -2.857    -2.935    -0.078     17.26
   Amm             2.233e-06   2.250e-06    -5.651    -5.648     0.003     23.55
   AmmHSO4-        8.920e-08   7.666e-08    -7.050    -7.115    -0.066     34.35
C(4)          2.131e-02
   HCO3-           1.681e-02   1.439e-02    -1.774    -1.842    -0.068     23.38
   CO2             4.119e-03   4.139e-03    -2.385    -2.383     0.002     34.09
   FeHCO3+         1.473e-04   1.251e-04    -3.832    -3.903    -0.071     (0)  
   MgHCO3+         1.192e-04   1.009e-04    -3.924    -3.996    -0.072      5.02
   NaHCO3          6.149e-05   6.218e-05    -4.211    -4.206     0.005     16.24
   CaCO3           1.539e-05   1.550e-05    -4.813    -4.810     0.003    -14.65
   FeCO3           9.825e-06   9.898e-06    -5.008    -5.004     0.003     (0)  
   CO3-2           8.874e-06   4.747e-06    -5.052    -5.324    -0.272     -5.94
   MnHCO3+         7.590e-06   6.472e-06    -5.120    -5.189    -0.069     (0)  
   MgCO3           2.247e-06   2.264e-06    -5.648    -5.645     0.003    -17.07
   MnCO3           1.889e-06   1.903e-06    -5.724    -5.721     0.003     (0)  
   KHCO3           1.609e-06   1.621e-06    -5.794    -5.790     0.003     20.09
   (CO2)2          1.201e-07   1.207e-07    -6.921    -6.918     0.002     67.34
   CaHCO3+         1.196e-10   1.027e-10    -9.922    -9.988    -0.066      9.05
Ca            4.500e-03
   Ca+2            4.449e-03   2.382e-03    -2.352    -2.623    -0.271    -18.06
   CaHPO4          3.140e-05   3.163e-05    -4.503    -4.500     0.003     (0)  
   CaCO3           1.539e-05   1.550e-05    -4.813    -4.810     0.003    -14.65
   CaH2PO4+        3.002e-06   2.567e-06    -5.523    -5.591    -0.068     (0)  
   CaSO4           8.332e-07   8.360e-07    -6.079    -6.078     0.001      5.32
   CaPO4-          6.566e-07   5.615e-07    -6.183    -6.251    -0.068     (0)  
   CaOH+           4.651e-09   3.949e-09    -8.332    -8.403    -0.071     (0)  
   CaHCO3+         1.196e-10   1.027e-10    -9.922    -9.988    -0.066      9.05
   CaHSO4+         1.000e-12   8.496e-13   -12.000   -12.071    -0.071     (0)  
Cl            1.005e-02
   Cl-             1.005e-02   8.489e-03    -1.998    -2.071    -0.073     17.53
   FeCl+           1.199e-06   1.019e-06    -5.921    -5.992    -0.071     (0)  
   MnCl+           2.047e-07   1.745e-07    -6.689    -6.758    -0.069     -7.82
   MnCl2           6.420e-10   6.467e-10    -9.192    -9.189     0.003    108.27
   HCl             3.100e-10   3.200e-10    -9.509    -9.495     0.014     19.11
   MnCl3-          1.773e-12   1.512e-12   -11.751   -11.820    -0.069     44.02
   FeCl+2          1.077e-14   5.695e-15   -13.968   -14.245    -0.277     (0)  
   FeCl2+          4.105e-16   3.500e-16   -15.387   -15.456    -0.069     (0)  
   FeCl3           2.949e-19   2.971e-19   -18.530   -18.527     0.003     (0)  
F             9.867e-06
   F-              9.515e-06   8.021e-06    -5.022    -5.096    -0.074     -1.54
   MgF+            2.956e-07   2.511e-07    -6.529    -6.600    -0.071    -10.52
   NaF             4.688e-08   4.723e-08    -7.329    -7.326     0.003      6.58
   FeF+            8.210e-09   6.972e-09    -8.086    -8.157    -0.071     (0)  
   HF              9.273e-10   9.342e-10    -9.033    -9.030     0.003     11.67
   MnF+            3.284e-10   2.801e-10    -9.484    -9.553    -0.069     (0)  
   FeF+2           6.857e-13   3.627e-13   -12.164   -12.441    -0.277     (0)  
   FeF2+           1.133e-13   9.661e-14   -12.946   -13.015    -0.069     (0)  
   HF2-            2.944e-14   2.500e-14   -13.531   -13.602    -0.071     21.25
   FeF3            1.157e-15   1.166e-15   -14.936   -14.933     0.003     (0)  
   SiF6-2          1.798e-31   9.509e-32   -30.745   -31.022    -0.277     41.73
Fe(2)         3.323e-04
   Fe+2            1.599e-04   8.693e-05    -3.796    -4.061    -0.265    -22.91
   FeHCO3+         1.473e-04   1.251e-04    -3.832    -3.903    -0.071     (0)  
   FeHPO4          1.106e-05   1.114e-05    -4.956    -4.953     0.003     (0)  
   FeCO3           9.825e-06   9.898e-06    -5.008    -5.004     0.003     (0)  
   FeH2PO4+        2.878e-06   2.461e-06    -5.541    -5.609    -0.068     (0)  
   FeCl+           1.199e-06   1.019e-06    -5.921    -5.992    -0.071     (0)  
   FeOH+           1.031e-07   8.794e-08    -6.987    -7.056    -0.069     (0)  
   FeSO4           4.766e-08   4.802e-08    -7.322    -7.319     0.003     29.04
   FeF+            8.210e-09   6.972e-09    -8.086    -8.157    -0.071     (0)  
   Fe(OH)2         1.972e-12   1.986e-12   -11.705   -11.702     0.003     (0)  
   FeHSO4+         3.651e-14   3.101e-14   -13.438   -13.509    -0.071     (0)  
   Fe(OH)3-        7.445e-16   6.349e-16   -15.128   -15.197    -0.069     (0)  
Fe(3)         3.220e-06
   Fe(OH)2+        2.055e-06   1.758e-06    -5.687    -5.755    -0.068     (0)  
   Fe(OH)3         1.156e-06   1.164e-06    -5.937    -5.934     0.003     (0)  
   Fe(OH)4-        6.723e-09   5.750e-09    -8.172    -8.240    -0.068     (0)  
   FeOH+2          1.791e-09   9.471e-10    -8.747    -9.024    -0.277     (0)  
   FeH2PO4+2       1.024e-12   5.475e-13   -11.990   -12.262    -0.272     (0)  
   FeF+2           6.857e-13   3.627e-13   -12.164   -12.441    -0.277     (0)  
   FeHPO4+         2.227e-13   1.899e-13   -12.652   -12.722    -0.069     (0)  
   Fe+3            1.212e-13   3.601e-14   -12.917   -13.444    -0.527     (0)  
   FeF2+           1.133e-13   9.661e-14   -12.946   -13.015    -0.069     (0)  
   FeCl+2          1.077e-14   5.695e-15   -13.968   -14.245    -0.277     (0)  
   FeSO4+          1.356e-15   1.157e-15   -14.868   -14.937    -0.069     (0)  
   FeF3            1.157e-15   1.166e-15   -14.936   -14.933     0.003     (0)  
   Fe2(OH)2+4      6.196e-16   4.532e-17   -15.208   -16.344    -1.136     (0)  
   FeCl2+          4.105e-16   3.500e-16   -15.387   -15.456    -0.069     (0)  
   Fe3(OH)4+5      4.043e-18   6.793e-20   -17.393   -19.168    -1.775     (0)  
   FeCl3           2.949e-19   2.971e-19   -18.530   -18.527     0.003     (0)  
   Fe(SO4)2-       1.152e-19   9.785e-20   -18.938   -19.009    -0.071     (0)  
   FeHSO4+2        6.204e-22   3.227e-22   -21.207   -21.491    -0.284     (0)  
H(0)          1.635e-25
   H2              8.176e-26   8.240e-26   -25.087   -25.084     0.003     13.69
K             3.844e-04
   K+              3.827e-04   3.230e-04    -3.417    -3.491    -0.074      8.53
   KHCO3           1.609e-06   1.621e-06    -5.794    -5.790     0.003     20.09
   KHPO4-          2.371e-08   2.028e-08    -7.625    -7.693    -0.068     39.50
   KSO4-           2.242e-08   1.945e-08    -7.649    -7.711    -0.062     23.30
Mg            1.282e-03
   Mg+2            1.147e-03   6.246e-04    -2.940    -3.204    -0.264    -20.90
   MgHCO3+         1.192e-04   1.009e-04    -3.924    -3.996    -0.072      5.02
   MgHPO4          1.113e-05   1.121e-05    -4.953    -4.950     0.003     (0)  
   MgCO3           2.247e-06   2.264e-06    -5.648    -5.645     0.003    -17.07
   MgH2PO4+        1.002e-06   8.573e-07    -5.999    -6.067    -0.068     (0)  
   MgSO4           4.542e-07   4.610e-07    -6.343    -6.336     0.006     -1.96
   MgF+            2.956e-07   2.511e-07    -6.529    -6.600    -0.071    -10.52
   MgPO4-          2.322e-07   1.986e-07    -6.634    -6.702    -0.068     (0)  
   MgOH+           6.641e-09   5.721e-09    -8.178    -8.243    -0.065     (0)  
   Mg(SO4)2-2      1.480e-11   8.280e-12   -10.830   -11.082    -0.252     34.84
Mn(2)         1.897e-05
   Mn+2            9.283e-06   5.047e-06    -5.032    -5.297    -0.265    -19.52
   MnHCO3+         7.590e-06   6.472e-06    -5.120    -5.189    -0.069     (0)  
   MnCO3           1.889e-06   1.903e-06    -5.724    -5.721     0.003     (0)  
   MnCl+           2.047e-07   1.745e-07    -6.689    -6.758    -0.069     -7.82
   MnCl2           6.420e-10   6.467e-10    -9.192    -9.189     0.003    108.27
   MnOH+           4.388e-10   3.742e-10    -9.358    -9.427    -0.069     (0)  
   MnSO4           3.423e-10   3.399e-10    -9.466    -9.469    -0.003     16.94
   MnF+            3.284e-10   2.801e-10    -9.484    -9.553    -0.069     (0)  
   MnCl3-          1.773e-12   1.512e-12   -11.751   -11.820    -0.069     44.02
   Mn(NO3)2        3.041e-15   3.063e-15   -14.517   -14.514     0.003     45.79
   Mn(OH)3-        9.356e-20   7.978e-20   -19.029   -19.098    -0.069     (0)  
Mn(3)         5.667e-28
   Mn+3            5.667e-28   1.684e-28   -27.247   -27.774    -0.527     (0)  
N(5)          1.446e-05
   NO3-            1.446e-05   1.214e-05    -4.840    -4.916    -0.076     27.86
   Mn(NO3)2        3.041e-15   3.063e-15   -14.517   -14.514     0.003     45.79
Na            1.207e-02
   Na+             1.201e-02   1.023e-02    -1.920    -1.990    -0.070     -2.22
   NaHCO3          6.149e-05   6.218e-05    -4.211    -4.206     0.005     16.24
   NaHPO4-         7.513e-07   6.425e-07    -6.124    -6.192    -0.068     35.74
   NaSO4-          3.693e-07   3.138e-07    -6.433    -6.503    -0.071     16.67
   NaF             4.688e-08   4.723e-08    -7.329    -7.326     0.003      6.58
   Na2SO4          3.337e-13   3.359e-13   -12.477   -12.474     0.003     56.91
O(0)          0.000e+00
   O2              0.000e+00   0.000e+00   -47.275   -47.272     0.003     29.01
P             1.891e-04
   H2PO4-          6.605e-05   5.649e-05    -4.180    -4.248    -0.068     33.66
   HPO4-2          6.088e-05   3.220e-05    -4.216    -4.492    -0.277      7.49
   CaHPO4          3.140e-05   3.163e-05    -4.503    -4.500     0.003     (0)  
   MgHPO4          1.113e-05   1.121e-05    -4.953    -4.950     0.003     (0)  
   FeHPO4          1.106e-05   1.114e-05    -4.956    -4.953     0.003     (0)  
   CaH2PO4+        3.002e-06   2.567e-06    -5.523    -5.591    -0.068     (0)  
   FeH2PO4+        2.878e-06   2.461e-06    -5.541    -5.609    -0.068     (0)  
   MgH2PO4+        1.002e-06   8.573e-07    -5.999    -6.067    -0.068     (0)  
   NaHPO4-         7.513e-07   6.425e-07    -6.124    -6.192    -0.068     35.74
   CaPO4-          6.566e-07   5.615e-07    -6.183    -6.251    -0.068     (0)  
   MgPO4-          2.322e-07   1.986e-07    -6.634    -6.702    -0.068     (0)  
   KHPO4-          2.371e-08   2.028e-08    -7.625    -7.693    -0.068     39.50
   H3PO4           6.884e-10   6.935e-10    -9.162    -9.159     0.003     46.42
   PO4-3           4.803e-10   1.071e-10    -9.318    -9.970    -0.652    -21.03
   FeH2PO4+2       1.024e-12   5.475e-13   -11.990   -12.262    -0.272     (0)  
   FeHPO4+         2.227e-13   1.899e-13   -12.652   -12.722    -0.069     (0)  
S(6)          9.600e-06
   SO4-2           7.783e-06   4.104e-06    -5.109    -5.387    -0.278     11.95
   CaSO4           8.332e-07   8.360e-07    -6.079    -6.078     0.001      5.32
   MgSO4           4.542e-07   4.610e-07    -6.343    -6.336     0.006     -1.96
   NaSO4-          3.693e-07   3.138e-07    -6.433    -6.503    -0.071     16.67
   AmmHSO4-        8.920e-08   7.666e-08    -7.050    -7.115    -0.066     34.35
   FeSO4           4.766e-08   4.802e-08    -7.322    -7.319     0.003     29.04
   KSO4-           2.242e-08   1.945e-08    -7.649    -7.711    -0.062     23.30
   MnSO4           3.423e-10   3.399e-10    -9.466    -9.469    -0.003     16.94
   HSO4-           3.494e-11   2.967e-11   -10.457   -10.528    -0.071     39.08
   Mg(SO4)2-2      1.480e-11   8.280e-12   -10.830   -11.082    -0.252     34.84
   CaHSO4+         1.000e-12   8.496e-13   -12.000   -12.071    -0.071     (0)  
   Na2SO4          3.337e-13   3.359e-13   -12.477   -12.474     0.003     56.91
   FeHSO4+         3.651e-14   3.101e-14   -13.438   -13.509    -0.071     (0)  
   FeSO4+          1.356e-15   1.157e-15   -14.868   -14.937    -0.069     (0)  
   Fe(SO4)2-       1.152e-19   9.785e-20   -18.938   -19.009    -0.071     (0)  
   FeHSO4+2        6.204e-22   3.227e-22   -21.207   -21.491    -0.284     (0)  
Si            5.746e-04
   H4SiO4          5.740e-04   5.783e-04    -3.241    -3.238     0.003     53.60
   H3SiO4-         5.780e-07   4.892e-07    -6.238    -6.311    -0.072     27.54
   H2SiO4-2        2.221e-13   1.188e-13   -12.653   -12.925    -0.272     (0)  
   SiF6-2          1.798e-31   9.509e-32   -30.745   -31.022    -0.277     41.73

------------------------------Saturation indices-------------------------------

  Phase               SI** log IAP   log K(283 K,   1 atm)

  Amm(g)           -7.76     -5.65    2.12  Amm
  Anhydrite        -3.92     -8.01   -4.09  CaSO4
  Aragonite         0.31     -7.95   -8.26  CaCO3
  Arcanite        -10.27    -12.37   -2.10  K2SO4
  Calcite           0.41     -7.95   -8.35  CaCO3
  Chalcedony        0.49     -3.24   -3.73  SiO2
  Chrysotile       -8.18     25.91   34.09  Mg3Si2O5(OH)4
  CO2(g)           -1.11     -2.38   -1.28  CO2
  Dolomite          0.41    -16.47  -16.89  CaMg(CO3)2
  Epsomite         -6.77     -8.59   -1.83  MgSO4:7H2O
  Fe(OH)3(a)        2.66      7.56    4.89  Fe(OH)3
  Fluorite         -2.03    -12.81  -10.79  CaF2
  Goethite          8.01      7.56   -0.46  FeOOH
  Gypsum           -3.50     -8.01   -4.51  CaSO4:2H2O
  H2(g)           -22.02    -25.08   -3.06  H2
  H2O(g)           -1.90     -0.00    1.90  H2O
  Halite           -5.62     -4.06    1.56  NaCl
  Hausmannite     -16.69     48.11   64.80  Mn3O4
  Hematite         17.96     15.11   -2.85  Fe2O3
  Hexahydrite      -7.01     -8.59   -1.59  MgSO4:6H2O
  Hydroxyapatite    3.47      1.41   -2.07  Ca5(PO4)3OH
  Jarosite-K       -4.56    -12.60   -8.04  KFe3(SO4)2(OH)6
  Kieserite        -7.29     -8.59   -1.31  MgSO4:H2O
  Manganite        -5.64     19.70   25.34  MnOOH
  Melanterite      -7.05     -9.45   -2.40  FeSO4:7H2O
  Mirabilite       -7.65     -9.37   -1.72  Na2SO4:10H2O
  O2(g)           -44.50    -47.27   -2.77  O2
  Pyrochroite      -6.50      8.70   15.20  Mn(OH)2
  Pyrolusite      -13.12     30.70   43.82  MnO2:H2O
  Quartz            0.97     -3.24   -4.20  SiO2
  Rhodochrosite     0.46    -10.62  -11.08  MnCO3
  Sepiolite        -4.28     11.88   16.16  Mg2Si3O7.5OH:3H2O
  Sepiolite(d)     -6.78     11.88   18.66  Mg2Si3O7.5OH:3H2O
  Siderite          1.41     -9.38  -10.80  FeCO3
  SiO2(a)          -0.40     -3.24   -2.84  SiO2
  Sylvite          -6.39     -5.56    0.82  KCl
  Talc             -3.70     19.44   23.14  Mg3Si4O10(OH)2
  Thenardite      -10.20     -9.37    0.84  Na2SO4
  Vivianite         3.87    -32.13  -36.00  Fe3(PO4)2:8H2O

**For a gas, SI = log10(fugacity). Fugacity = pressure * phi / 1 atm.
  For ideal gases, phi = 1.

Initial solution 4.	

----------------------------------User print-----------------------------------

  1.0018e+00 

-----------------------------Solution composition------------------------------

	Elements           Molality       Moles

	Alkalinity        2.109e-02   2.109e-02
	Amm               1.109e-03   1.109e-03
	Ca                5.404e-03   5.404e-03
	Cl                1.685e-02   1.685e-02
	F                 8.463e-06   8.463e-06
	Fe                2.460e-04   2.460e-04
	K                 6.334e-04   6.334e-04
	Mg                2.009e-03   2.009e-03
	Mn                2.245e-05   2.245e-05
	N(5)              5.430e-05   5.430e-05
	Na                1.976e-02   1.976e-02
	P                 1.704e-04   1.704e-04
	S(6)              3.343e-05   3.343e-05
	Si                5.321e-04   5.321e-04

----------------------------Description of solution----------------------------

                                       pH  =   7.000    
                                       pe  =   4.000    
      Specific Conductance (µS/cm,  10°C)  = 2487
                          Density (g/cm³)  =   1.00179
                               Volume (L)  =   1.00115
                        Viscosity (mPa s)  =   1.30564
                        Activity of water  =   0.999
                 Ionic strength (mol/kgw)  =   4.425e-02
                       Mass of water (kg)  =   1.000e+00
                    Total carbon (mol/kg)  =   2.586e-02
                       Total CO2 (mol/kg)  =   2.586e-02
                         Temperature (°C)  =  10.30
                  Electrical balance (eq)  =  -1.384e-03
 Percent error, 100*(Cat-|An|)/(Cat+|An|)  =  -1.88
                               Iterations  =  10 (42 overall)
                                  Total H  = 1.110368e+02
                                  Total O  = 5.558198e+01

----------------------------Distribution of species----------------------------

                                               Log       Log       Log    mole V
   Species          Molality    Activity  Molality  Activity     Gamma   cm³/mol

   H+              1.161e-07   1.000e-07    -6.935    -7.000    -0.065      0.00
   OH-             3.665e-08   3.017e-08    -7.436    -7.520    -0.084     -4.79
   H2O             5.551e+01   9.988e-01     1.744    -0.001     0.000     18.02
Amm           1.109e-03
   AmmH+           1.107e-03   9.010e-04    -2.956    -3.045    -0.089     17.28
   Amm             1.702e-06   1.719e-06    -5.769    -5.765     0.004     23.53
   AmmHSO4-        2.181e-07   1.839e-07    -6.661    -6.735    -0.074     34.58
C(4)          2.586e-02
   HCO3-           2.043e-02   1.715e-02    -1.690    -1.766    -0.076     23.44
   CO2             4.924e-03   4.957e-03    -2.308    -2.305     0.003     34.08
   MgHCO3+         2.094e-04   1.733e-04    -3.679    -3.761    -0.082      5.03
   NaHCO3          1.167e-04   1.185e-04    -3.933    -3.926     0.007     16.21
   FeHCO3+         1.159e-04   9.642e-05    -3.936    -4.016    -0.080     (0)  
   CaCO3           2.021e-05   2.042e-05    -4.694    -4.690     0.004    -14.65
   CO3-2           1.137e-05   5.625e-06    -4.944    -5.250    -0.306     -5.83
   MnHCO3+         9.503e-06   7.941e-06    -5.022    -5.100    -0.078     (0)  
   FeCO3           7.510e-06   7.587e-06    -5.124    -5.120     0.004     (0)  
   MgCO3           3.817e-06   3.857e-06    -5.418    -5.414     0.004    -17.07
   KHCO3           3.065e-06   3.096e-06    -5.514    -5.509     0.004     20.07
   MnCO3           2.298e-06   2.321e-06    -5.639    -5.634     0.004     (0)  
   (CO2)2          1.697e-07   1.708e-07    -6.770    -6.767     0.003     67.32
   CaHCO3+         1.537e-10   1.295e-10    -9.813    -9.888    -0.074      9.05
Ca            5.404e-03
   Ca+2            5.348e-03   2.651e-03    -2.272    -2.577    -0.305    -18.00
   CaHPO4          2.951e-05   2.981e-05    -4.530    -4.526     0.004     (0)  
   CaCO3           2.021e-05   2.042e-05    -4.694    -4.690     0.004    -14.65
   CaH2PO4+        2.889e-06   2.422e-06    -5.539    -5.616    -0.076     (0)  
   CaSO4           2.858e-06   2.871e-06    -5.544    -5.542     0.002      5.29
   CaPO4-          6.284e-07   5.270e-07    -6.202    -6.278    -0.076     (0)  
   CaOH+           5.283e-09   4.394e-09    -8.277    -8.357    -0.080     (0)  
   CaHCO3+         1.537e-10   1.295e-10    -9.813    -9.888    -0.074      9.05
   CaHSO4+         3.518e-12   2.926e-12   -11.454   -11.534    -0.080     (0)  
Cl            1.685e-02
   Cl-             1.685e-02   1.392e-02    -1.773    -1.856    -0.083     17.54
   FeCl+           1.298e-06   1.080e-06    -5.887    -5.967    -0.080     (0)  
   MnCl+           3.525e-07   2.946e-07    -6.453    -6.531    -0.078     -7.89
   MnCl2           1.771e-09   1.789e-09    -8.752    -8.747     0.004    108.66
   HCl             5.029e-10   5.252e-10    -9.298    -9.280     0.019     19.09
   MnCl3-          8.209e-12   6.859e-12   -11.086   -11.164    -0.078     44.08
   FeCl+2          1.215e-14   5.924e-15   -13.915   -14.227    -0.312     (0)  
   FeCl2+          7.196e-16   6.012e-16   -15.143   -15.221    -0.078     (0)  
   FeCl3           8.283e-19   8.368e-19   -18.082   -18.077     0.004     (0)  
F             8.463e-06
   F-              8.038e-06   6.617e-06    -5.095    -5.179    -0.084     -1.52
   MgF+            3.577e-07   2.975e-07    -6.446    -6.527    -0.080    -10.51
   NaF             6.182e-08   6.245e-08    -7.209    -7.204     0.004      6.57
   FeF+            4.473e-09   3.720e-09    -8.349    -8.429    -0.080     (0)  
   HF              7.603e-10   7.681e-10    -9.119    -9.115     0.004     11.66
   MnF+            2.846e-10   2.378e-10    -9.546    -9.624    -0.078     (0)  
   FeF+2           3.909e-13   1.905e-13   -12.408   -12.720    -0.312     (0)  
   FeF2+           4.999e-14   4.177e-14   -13.301   -13.379    -0.078     (0)  
   HF2-            2.034e-14   1.692e-14   -13.692   -13.772    -0.080     21.26
   FeF3            4.114e-16   4.156e-16   -15.386   -15.381     0.004     (0)  
   SiF6-2          5.838e-32   2.846e-32   -31.234   -31.546    -0.312     41.81
Fe(2)         2.439e-04
   FeHCO3+         1.159e-04   9.642e-05    -3.936    -4.016    -0.080     (0)  
   Fe+2            1.114e-04   5.623e-05    -3.953    -4.250    -0.297    -22.87
   FeCO3           7.510e-06   7.587e-06    -5.124    -5.120     0.004     (0)  
   FeHPO4          6.066e-06   6.128e-06    -5.217    -5.213     0.004     (0)  
   FeH2PO4+        1.616e-06   1.355e-06    -5.792    -5.868    -0.076     (0)  
   FeCl+           1.298e-06   1.080e-06    -5.887    -5.967    -0.080     (0)  
   FeSO4           9.511e-08   9.608e-08    -7.022    -7.017     0.004     29.02
   FeOH+           6.693e-08   5.593e-08    -7.174    -7.252    -0.078     (0)  
   FeF+            4.473e-09   3.720e-09    -8.349    -8.429    -0.080     (0)  
   Fe(OH)2         1.226e-12   1.239e-12   -11.911   -11.907     0.004     (0)  
   FeHSO4+         7.461e-14   6.206e-14   -13.127   -13.207    -0.080     (0)  
   Fe(OH)3-        4.727e-16   3.949e-16   -15.325   -15.403    -0.078     (0)  
Fe(3)         2.029e-06
   Fe(OH)2+        1.310e-06   1.099e-06    -5.883    -5.959    -0.076     (0)  
   Fe(OH)3         7.132e-07   7.205e-07    -6.147    -6.142     0.004     (0)  
   Fe(OH)4-        4.204e-09   3.525e-09    -8.376    -8.453    -0.076     (0)  
   FeOH+2          1.225e-09   5.972e-10    -8.912    -9.224    -0.312     (0)  
   FeH2PO4+2       6.023e-13   2.979e-13   -12.220   -12.526    -0.306     (0)  
   FeF+2           3.909e-13   1.905e-13   -12.408   -12.720    -0.312     (0)  
   FeHPO4+         1.226e-13   1.024e-13   -12.912   -12.990    -0.078     (0)  
   Fe+3            8.809e-14   2.301e-14   -13.055   -13.638    -0.583     (0)  
   FeF2+           4.999e-14   4.177e-14   -13.301   -13.379    -0.078     (0)  
   FeCl+2          1.215e-14   5.924e-15   -13.915   -14.227    -0.312     (0)  
   FeSO4+          2.734e-15   2.285e-15   -14.563   -14.641    -0.078     (0)  
   FeCl2+          7.196e-16   6.012e-16   -15.143   -15.221    -0.078     (0)  
   FeF3            4.114e-16   4.156e-16   -15.386   -15.381     0.004     (0)  
   Fe2(OH)2+4      3.459e-16   1.818e-17   -15.461   -16.740    -1.279     (0)  
   Fe3(OH)4+5      1.734e-18   1.739e-20   -17.761   -19.760    -1.999     (0)  
   FeCl3           8.283e-19   8.368e-19   -18.082   -18.077     0.004     (0)  
   Fe(SO4)2-       7.211e-19   5.999e-19   -18.142   -18.222    -0.080     (0)  
   FeHSO4+2        1.332e-21   6.380e-22   -20.875   -21.195    -0.320     (0)  
H(0)          1.634e-25
   H2              8.170e-26   8.258e-26   -25.088   -25.083     0.005     13.67
K             6.334e-04
   K+              6.302e-04   5.196e-04    -3.201    -3.284    -0.084      8.55
   KHCO3           3.065e-06   3.096e-06    -5.514    -5.509     0.004     20.07
   KSO4-           1.136e-07   9.715e-08    -6.945    -7.013    -0.068     24.06
   KHPO4-          3.308e-08   2.774e-08    -7.480    -7.557    -0.076     39.56
Mg            2.009e-03
   Mg+2            1.778e-03   9.005e-04    -2.750    -3.046    -0.295    -20.83
   MgHCO3+         2.094e-04   1.733e-04    -3.679    -3.761    -0.082      5.03
   MgHPO4          1.355e-05   1.369e-05    -4.868    -4.864     0.004     (0)  
   MgCO3           3.817e-06   3.857e-06    -5.418    -5.414     0.004    -17.07
   MgSO4           2.013e-06   2.054e-06    -5.696    -5.687     0.009     -1.98
   MgH2PO4+        1.249e-06   1.048e-06    -5.903    -5.980    -0.076     (0)  
   MgF+            3.577e-07   2.975e-07    -6.446    -6.527    -0.080    -10.51
   MgPO4-          2.879e-07   2.415e-07    -6.541    -6.617    -0.076     (0)  
   MgOH+           9.550e-09   8.083e-09    -8.020    -8.092    -0.072     (0)  
   Mg(SO4)2-2      2.198e-10   1.151e-10    -9.658    -9.939    -0.281     35.38
Mn(2)         2.245e-05
   Mn+2            1.029e-05   5.196e-06    -4.987    -5.284    -0.297    -19.29
   MnHCO3+         9.503e-06   7.941e-06    -5.022    -5.100    -0.078     (0)  
   MnCO3           2.298e-06   2.321e-06    -5.639    -5.634     0.004     (0)  
   MnCl+           3.525e-07   2.946e-07    -6.453    -6.531    -0.078     -7.89
   MnCl2           1.771e-09   1.789e-09    -8.752    -8.747     0.004    108.66
   MnSO4           1.091e-09   1.080e-09    -8.962    -8.967    -0.004     16.93
   MnOH+           4.526e-10   3.782e-10    -9.344    -9.422    -0.078     (0)  
   MnF+            2.846e-10   2.378e-10    -9.546    -9.624    -0.078     (0)  
   MnCl3-          8.209e-12   6.859e-12   -11.086   -11.164    -0.078     44.08
   Mn(NO3)2        4.189e-14   4.232e-14   -13.378   -13.373     0.004     45.87
   Mn(OH)3-        9.818e-20   8.204e-20   -19.008   -19.086    -0.078     (0)  
Mn(3)         6.425e-28
   Mn+3            6.425e-28   1.678e-28   -27.192   -27.775    -0.583     (0)  
N(5)          5.430e-05
   NO3-            5.430e-05   4.446e-05    -4.265    -4.352    -0.087     27.86
   Mn(NO3)2        4.189e-14   4.232e-14   -13.378   -13.373     0.004     45.87
Na            1.976e-02
   Na+             1.964e-02   1.640e-02    -1.707    -1.785    -0.078     -2.19
   NaHCO3          1.167e-04   1.185e-04    -3.933    -3.926     0.007     16.21
   NaSO4-          1.873e-06   1.559e-06    -5.728    -5.807    -0.080     16.83
   NaHPO4-         1.044e-06   8.755e-07    -5.981    -6.058    -0.076     36.44
   NaF             6.182e-08   6.245e-08    -7.209    -7.204     0.004      6.57
   Na2SO4          2.590e-12   2.614e-12   -11.587   -11.583     0.004     57.07
O(0)          0.000e+00
   O2              0.000e+00   0.000e+00   -47.352   -47.348     0.004     28.98
P             1.704e-04
   H2PO4-          5.734e-05   4.809e-05    -4.242    -4.318    -0.076     33.70
   HPO4-2          5.616e-05   2.738e-05    -4.251    -4.563    -0.312      7.60
   CaHPO4          2.951e-05   2.981e-05    -4.530    -4.526     0.004     (0)  
   MgHPO4          1.355e-05   1.369e-05    -4.868    -4.864     0.004     (0)  
   FeHPO4          6.066e-06   6.128e-06    -5.217    -5.213     0.004     (0)  
   CaH2PO4+        2.889e-06   2.422e-06    -5.539    -5.616    -0.076     (0)  
   FeH2PO4+        1.616e-06   1.355e-06    -5.792    -5.868    -0.076     (0)  
   MgH2PO4+        1.249e-06   1.048e-06    -5.903    -5.980    -0.076     (0)  
   NaHPO4-         1.044e-06   8.755e-07    -5.981    -6.058    -0.076     36.44
   CaPO4-          6.284e-07   5.270e-07    -6.202    -6.278    -0.076     (0)  
   MgPO4-          2.879e-07   2.415e-07    -6.541    -6.617    -0.076     (0)  
   KHPO4-          3.308e-08   2.774e-08    -7.480    -7.557    -0.076     39.56
   H3PO4           5.829e-10   5.888e-10    -9.234    -9.230     0.004     46.40
   PO4-3           4.979e-10   9.062e-11    -9.303   -10.043    -0.740    -20.80
   FeH2PO4+2       6.023e-13   2.979e-13   -12.220   -12.526    -0.306     (0)  
   FeHPO4+         1.226e-13   1.024e-13   -12.912   -12.990    -0.078     (0)  
S(6)          3.343e-05
   SO4-2           2.626e-05   1.275e-05    -4.581    -4.895    -0.314     11.96
   CaSO4           2.858e-06   2.871e-06    -5.544    -5.542     0.002      5.29
   MgSO4           2.013e-06   2.054e-06    -5.696    -5.687     0.009     -1.98
   NaSO4-          1.873e-06   1.559e-06    -5.728    -5.807    -0.080     16.83
   AmmHSO4-        2.181e-07   1.839e-07    -6.661    -6.735    -0.074     34.58
   KSO4-           1.136e-07   9.715e-08    -6.945    -7.013    -0.068     24.06
   FeSO4           9.511e-08   9.608e-08    -7.022    -7.017     0.004     29.02
   MnSO4           1.091e-09   1.080e-09    -8.962    -8.967    -0.004     16.93
   Mg(SO4)2-2      2.198e-10   1.151e-10    -9.658    -9.939    -0.281     35.38
   HSO4-           1.104e-10   9.181e-11    -9.957   -10.037    -0.080     39.08
   CaHSO4+         3.518e-12   2.926e-12   -11.454   -11.534    -0.080     (0)  
   Na2SO4          2.590e-12   2.614e-12   -11.587   -11.583     0.004     57.07
   FeHSO4+         7.461e-14   6.206e-14   -13.127   -13.207    -0.080     (0)  
   FeSO4+          2.734e-15   2.285e-15   -14.563   -14.641    -0.078     (0)  
   Fe(SO4)2-       7.211e-19   5.999e-19   -18.142   -18.222    -0.080     (0)  
   FeHSO4+2        1.332e-21   6.380e-22   -20.875   -21.195    -0.320     (0)  
Si            5.321e-04
   H4SiO4          5.316e-04   5.370e-04    -3.274    -3.270     0.004     53.63
   H3SiO4-         5.443e-07   4.505e-07    -6.264    -6.346    -0.082     27.55
   H2SiO4-2        2.178e-13   1.077e-13   -12.662   -12.968    -0.306     (0)  
   SiF6-2          5.838e-32   2.846e-32   -31.234   -31.546    -0.312     41.81

------------------------------Saturation indices-------------------------------

  Phase               SI** log IAP   log K(283 K,   1 atm)

  Amm(g)           -7.89     -5.76    2.12  Amm
  Anhydrite        -3.38     -7.47   -4.09  CaSO4
  Aragonite         0.43     -7.83   -8.26  CaCO3
  Arcanite         -9.36    -11.46   -2.10  K2SO4
  Calcite           0.52     -7.83   -8.35  CaCO3
  Chalcedony        0.46     -3.27   -3.73  SiO2
  Chrysotile       -7.79     26.32   34.11  Mg3Si2O5(OH)4
  CO2(g)           -1.03     -2.30   -1.27  CO2
  Dolomite          0.76    -16.12  -16.88  CaMg(CO3)2
  Epsomite         -6.11     -7.94   -1.83  MgSO4:7H2O
  Fe(OH)3(a)        2.47      7.36    4.89  Fe(OH)3
  Fluorite         -2.14    -12.94  -10.79  CaF2
  Goethite          7.81      7.36   -0.45  FeOOH
  Gypsum           -2.96     -7.47   -4.51  CaSO4:2H2O
  H2(g)           -22.02    -25.08   -3.06  H2
  H2O(g)           -1.90     -0.00    1.90  H2O
  Halite           -5.20     -3.64    1.56  NaCl
  Hausmannite     -16.71     48.14   64.86  Mn3O4
  Hematite         17.56     14.72   -2.84  Fe2O3
  Hexahydrite      -6.36     -7.94   -1.59  MgSO4:6H2O
  Hydroxyapatite    3.48      1.43   -2.05  Ca5(PO4)3OH
  Jarosite-K       -3.97    -11.99   -8.02  KFe3(SO4)2(OH)6
  Kieserite        -6.63     -7.94   -1.31  MgSO4:H2O
  Manganite        -5.63     19.71   25.34  MnOOH
  Melanterite      -6.74     -9.15   -2.41  FeSO4:7H2O
  Mirabilite       -6.73     -8.47   -1.74  Na2SO4:10H2O
  O2(g)           -44.58    -47.35   -2.77  O2
  Pyrochroite      -6.49      8.71   15.20  Mn(OH)2
  Pyrolusite      -13.14     30.71   43.86  MnO2:H2O
  Quartz            0.94     -3.27   -4.21  SiO2
  Rhodochrosite     0.54    -10.53  -11.08  MnCO3
  Sepiolite        -4.07     12.10   16.17  Mg2Si3O7.5OH:3H2O
  Sepiolite(d)     -6.56     12.10   18.66  Mg2Si3O7.5OH:3H2O
  Siderite          1.30     -9.50  -10.80  FeCO3
  SiO2(a)          -0.43     -3.27   -2.84  SiO2
  Sylvite          -5.96     -5.14    0.82  KCl
  Talc             -3.38     19.79   23.16  Mg3Si4O10(OH)2
  Thenardite       -9.30     -8.46    0.84  Na2SO4
  Vivianite         3.16    -32.84  -36.00  Fe3(PO4)2:8H2O

**For a gas, SI = log10(fugacity). Fugacity = pressure * phi / 1 atm.
  For ideal gases, phi = 1.

Initial solution 5.	

----------------------------------User print-----------------------------------

  1.0023e+00 

-----------------------------Solution composition------------------------------

	Elements           Molality       Moles

	Alkalinity        2.121e-02   2.121e-02
	Amm               9.078e-04   9.078e-04
	Ca                7.009e-03   7.009e-03
	Cl                2.764e-02   2.764e-02
	F                 7.786e-06   7.786e-06
	Fe                2.587e-04   2.587e-04
	K                 8.801e-04   8.801e-04
	Mg                2.806e-03   2.806e-03
	Mn                2.995e-05   2.995e-05
	Na                2.592e-02   2.592e-02
	P                 1.596e-04   1.596e-04
	S(6)              2.455e-05   2.455e-05
	Si                5.217e-04   5.217e-04

----------------------------Description of solution----------------------------

                                       pH  =   7.000    
                                       pe  =   4.000    
      Specific Conductance (µS/cm,  10°C)  = 3313
                          Density (g/cm³)  =   1.00225
                               Volume (L)  =   1.00130
                        Viscosity (mPa s)  =   1.29980
                        Activity of water  =   0.998
                 Ionic strength (mol/kgw)  =   5.740e-02
                       Mass of water (kg)  =   1.000e+00
                    Total carbon (mol/kg)  =   2.587e-02
                       Total CO2 (mol/kg)  =   2.587e-02
                         Temperature (°C)  =  10.50
                  Electrical balance (eq)  =  -1.156e-03
 Percent error, 100*(Cat-|An|)/(Cat+|An|)  =  -1.21
                               Iterations  =  10 (52 overall)
                                  Total H  = 1.110366e+02
                                  Total O  = 5.558183e+01

----------------------------Distribution of species----------------------------

                                               Log       Log       Log    mole V
   Species          Molality    Activity  Molality  Activity     Gamma   cm³/mol

   H+              1.175e-07   1.000e-07    -6.930    -7.000    -0.070      0.00
   OH-             3.810e-08   3.070e-08    -7.419    -7.513    -0.094     -4.74
   H2O             5.551e+01   9.984e-01     1.744    -0.001     0.000     18.02
Amm           9.078e-04
   AmmH+           9.063e-04   7.201e-04    -3.043    -3.143    -0.100     17.33
   Amm             1.377e-06   1.396e-06    -5.861    -5.855     0.006     23.55
   AmmHSO4-        1.172e-07   9.718e-08    -6.931    -7.012    -0.081     34.81
C(4)          2.587e-02
   HCO3-           2.044e-02   1.687e-02    -1.689    -1.773    -0.083     23.56
   CO2             4.813e-03   4.855e-03    -2.318    -2.314     0.004     34.09
   MgHCO3+         2.782e-04   2.256e-04    -3.556    -3.647    -0.091      5.05
   NaHCO3          1.477e-04   1.507e-04    -3.831    -3.822     0.009     16.24
   FeHCO3+         1.186e-04   9.689e-05    -3.926    -4.014    -0.088     (0)  
   CaCO3           2.425e-05   2.458e-05    -4.615    -4.609     0.006    -14.65
   MnHCO3+         1.221e-05   1.002e-05    -4.913    -4.999    -0.086     (0)  
   CO3-2           1.205e-05   5.564e-06    -4.919    -5.255    -0.336     -5.64
   FeCO3           7.567e-06   7.667e-06    -5.121    -5.115     0.006     (0)  
   MgCO3           4.998e-06   5.064e-06    -5.301    -5.295     0.006    -17.07
   KHCO3           4.106e-06   4.160e-06    -5.387    -5.381     0.006     20.09
   MnCO3           2.907e-06   2.946e-06    -5.537    -5.531     0.006     (0)  
   (CO2)2          1.646e-07   1.660e-07    -6.784    -6.780     0.004     67.34
   CaHCO3+         1.963e-10   1.628e-10    -9.707    -9.788    -0.081      9.08
Ca            7.009e-03
   Ca+2            6.949e-03   3.221e-03    -2.158    -2.492    -0.334    -17.94
[...]
   FeHSO4+         4.034e-15   3.791e-15   -14.394   -14.421    -0.027     (0)  
   Na2SO4          3.133e-15   3.135e-15   -14.504   -14.504     0.000     58.03
   FeSO4+          3.066e-16   2.884e-16   -15.513   -15.540    -0.027     (0)  
   Fe(SO4)2-       8.623e-19   8.104e-19   -18.064   -18.091    -0.027     (0)  
   FeHSO4+2        4.645e-23   3.623e-23   -22.333   -22.441    -0.108     (0)  
Si            2.800e-05
   H4SiO4          2.795e-05   2.797e-05    -4.554    -4.553     0.000     53.79
   H3SiO4-         5.311e-08   4.990e-08    -7.275    -7.302    -0.027     27.35
   H2SiO4-2        3.102e-14   2.433e-14   -13.508   -13.614    -0.106     (0)  
   SiF6-2          5.012e-37   3.924e-37   -36.300   -36.406    -0.106     41.14

------------------------------Saturation indices-------------------------------

  Phase               SI** log IAP   log K(282 K,   1 atm)

  Amm(g)           -8.59     -6.45    2.15  Amm
  Anhydrite        -2.97     -7.04   -4.07  CaSO4
  Aragonite        -0.84     -9.09   -8.25  CaCO3
  Arcanite        -11.68    -13.81   -2.13  K2SO4
  Calcite          -0.75     -9.09   -8.34  CaCO3
  Chalcedony       -0.81     -4.55   -3.75  SiO2
  Chrysotile      -11.84     22.44   34.28  Mg3Si2O5(OH)4
  CO2(g)           -2.39     -3.64   -1.26  CO2
  Dolomite         -2.32    -19.19  -16.87  CaMg(CO3)2
  Epsomite         -6.21     -8.05   -1.84  MgSO4:7H2O
  Fe(OH)3(a)        1.60      6.49    4.89  Fe(OH)3
  Fluorite         -3.47    -14.28  -10.81  CaF2
  Goethite          6.90      6.49   -0.40  FeOOH
  Gypsum           -2.53     -7.04   -4.51  CaSO4:2H2O
  H2(g)           -22.72    -25.78   -3.06  H2
  H2O(g)           -1.94     -0.00    1.94  H2O
  Halite           -8.92     -7.36    1.56  NaCl
  Hausmannite     -14.50     50.69   65.19  Mn3O4
  Hematite         15.72     12.99   -2.73  Fe2O3
  Hexahydrite      -6.46     -8.05   -1.59  MgSO4:6H2O
  Hydroxyapatite   -2.99     -4.92   -1.93  Ca5(PO4)3OH
  Jarosite-K       -7.35    -15.27   -7.92  KFe3(SO4)2(OH)6
  Kieserite        -6.72     -8.05   -1.33  MgSO4:H2O
  Manganite        -4.66     20.68   25.34  MnOOH
  Melanterite      -7.58    -10.00   -2.42  FeSO4:7H2O
  Mirabilite       -9.50    -11.32   -1.82  Na2SO4:10H2O
  O2(g)           -43.65    -46.40   -2.76  O2
  Pyrochroite      -5.87      9.33   15.20  Mn(OH)2
  Pyrolusite      -12.04     32.03   44.07  MnO2:H2O
  Quartz           -0.33     -4.55   -4.23  SiO2
  Rhodochrosite    -0.21    -11.29  -11.07  MnCO3
  Sepiolite        -8.83      7.37   16.20  Mg2Si3O7.5OH:3H2O
  Sepiolite(d)    -11.29      7.37   18.66  Mg2Si3O7.5OH:3H2O
  Siderite         -1.26    -12.05  -10.79  FeCO3
  SiO2(a)          -1.70     -4.55   -2.85  SiO2
  Sylvite          -9.42     -8.61    0.82  KCl
  Talc             -9.98     13.34   23.31  Mg3Si4O10(OH)2
  Thenardite      -12.17    -11.32    0.85  Na2SO4
  Vivianite        -4.98    -40.98  -36.00  Fe3(PO4)2:8H2O

**For a gas, SI = log10(fugacity). Fugacity = pressure * phi / 1 atm.
  For ideal gases, phi = 1.

Initial solution 60.	

----------------------------------User print-----------------------------------

  1.0008e+00 

-----------------------------Solution composition------------------------------

	Elements           Molality       Moles

	Alkalinity        8.304e-03   8.304e-03
	Amm               4.839e-05   4.839e-05
	Ca                5.372e-03   5.372e-03
	Cl                1.193e-02   1.193e-02
	F                 1.534e-06   1.534e-06
	Fe                2.474e-06   2.474e-06
	K                 4.584e-05   4.584e-05
	Mg                8.773e-04   8.773e-04
	Mn                5.067e-05   5.067e-05
	Na                7.143e-03   7.143e-03
	P                 3.057e-06   3.057e-06
	S(6)              1.129e-04   1.129e-04
	Si                5.100e-05   5.100e-05

----------------------------Description of solution----------------------------

                                       pH  =   7.110    
                                       pe  =   4.000    
      Specific Conductance (µS/cm,  10°C)  = 1434
                          Density (g/cm³)  =   1.00084
                               Volume (L)  =   1.00058
                        Viscosity (mPa s)  =   1.33162
                        Activity of water  =   0.999
                 Ionic strength (mol/kgw)  =   2.631e-02
                       Mass of water (kg)  =   1.000e+00
                    Total carbon (mol/kg)  =   9.890e-03
                       Total CO2 (mol/kg)  =   9.890e-03
                         Temperature (°C)  =   9.50
                  Electrical balance (eq)  =  -6.221e-04
 Percent error, 100*(Cat-|An|)/(Cat+|An|)  =  -1.56
                               Iterations  =   9 (602 overall)
                                  Total H  = 1.110209e+02
                                  Total O  = 5.553494e+01

----------------------------Distribution of species----------------------------

                                               Log       Log       Log    mole V
   Species          Molality    Activity  Molality  Activity     Gamma   cm³/mol

   H+              8.804e-08   7.762e-08    -7.055    -7.110    -0.055      0.00
   OH-             4.237e-08   3.622e-08    -7.373    -7.441    -0.068     -4.92
   H2O             5.551e+01   9.994e-01     1.744    -0.000     0.000     18.02
Amm           4.839e-05
   AmmH+           4.825e-05   4.095e-05    -4.316    -4.388    -0.071     17.16
   Amm             9.393e-08   9.450e-08    -7.027    -7.025     0.003     23.46
   AmmHSO4-        3.815e-08   3.316e-08    -7.419    -7.479    -0.061     34.19
C(4)          9.890e-03
   HCO3-           8.181e-03   7.083e-03    -2.087    -2.150    -0.063     23.18
   CO2             1.611e-03   1.617e-03    -2.793    -2.791     0.002     34.04
   MgHCO3+         4.365e-05   3.745e-05    -4.360    -4.427    -0.067      4.96
   NaHCO3          1.802e-05   1.819e-05    -4.744    -4.740     0.004     16.11
   MnHCO3+         1.338e-05   1.155e-05    -4.874    -4.937    -0.064     (0)  
   CaCO3           1.188e-05   1.195e-05    -4.925    -4.923     0.003    -14.66
   CO3-2           5.213e-06   2.924e-06    -5.283    -5.534    -0.251     -6.22
   MnCO3           4.224e-06   4.250e-06    -5.374    -5.372     0.003     (0)  
   MgCO3           1.030e-06   1.037e-06    -5.987    -5.984     0.003    -17.07
   FeHCO3+         7.452e-07   6.409e-07    -6.128    -6.193    -0.066     (0)  
   KHCO3           9.433e-08   9.490e-08    -7.025    -7.023     0.003     19.97
   FeCO3           6.309e-08   6.347e-08    -7.200    -7.197     0.003     (0)  
   (CO2)2          1.718e-08   1.725e-08    -7.765    -7.763     0.002     67.24
   CaHCO3+         5.686e-11   4.938e-11   -10.245   -10.306    -0.061      8.98
Ca            5.372e-03
   Ca+2            5.346e-03   3.000e-03    -2.272    -2.523    -0.251    -18.13
   CaSO4           1.275e-05   1.279e-05    -4.894    -4.893     0.001      5.15
   CaCO3           1.188e-05   1.195e-05    -4.925    -4.923     0.003    -14.66
   CaHPO4          7.355e-07   7.399e-07    -6.133    -6.131     0.003     (0)  
   CaH2PO4+        5.417e-08   4.688e-08    -7.266    -7.329    -0.063     (0)  
   CaPO4-          1.915e-08   1.657e-08    -7.718    -7.781    -0.063     (0)  
   CaOH+           7.453e-09   6.410e-09    -8.128    -8.193    -0.066     (0)  
   CaHCO3+         5.686e-11   4.938e-11   -10.245   -10.306    -0.061      8.98
   CaHSO4+         1.191e-11   1.025e-11   -10.924   -10.989    -0.066     (0)  
Cl            1.193e-02
   Cl-             1.193e-02   1.022e-02    -1.923    -1.991    -0.067     17.44
   MnCl+           8.821e-07   7.615e-07    -6.054    -6.118    -0.064     -8.28
   FeCl+           1.484e-08   1.276e-08    -7.829    -7.894    -0.066     (0)  
   MnCl2           3.376e-09   3.396e-09    -8.472    -8.469     0.003    110.25
   HCl             2.931e-10   3.008e-10    -9.533    -9.522     0.011     19.00
   MnCl3-          1.107e-11   9.557e-12   -10.956   -11.020    -0.064     44.02
   FeCl+2          1.167e-16   6.482e-17   -15.933   -16.188    -0.255     (0)  
   FeCl2+          5.753e-18   4.967e-18   -17.240   -17.304    -0.064     (0)  
   FeCl3           5.044e-21   5.075e-21   -20.297   -20.295     0.003     (0)  
F             1.534e-06
   F-              1.495e-06   1.278e-06    -5.825    -5.894    -0.068     -1.60
   MgF+            3.438e-08   2.959e-08    -7.464    -7.529    -0.065    -10.54
   NaF             4.490e-09   4.517e-09    -8.348    -8.345     0.003      6.52
   MnF+            1.873e-10   1.617e-10    -9.727    -9.791    -0.064     (0)  
   HF              1.129e-10   1.136e-10    -9.947    -9.945     0.003     11.60
   FeF+            1.344e-11   1.156e-11   -10.872   -10.937    -0.066     (0)  
   FeF+2           1.001e-15   5.564e-16   -14.999   -15.255    -0.255     (0)  
   HF2-            5.565e-16   4.786e-16   -15.255   -15.320    -0.066     21.15
   FeF2+           2.699e-17   2.330e-17   -16.569   -16.633    -0.064     (0)  
   FeF3            4.437e-20   4.464e-20   -19.353   -19.350     0.003     (0)  
   SiF6-2          9.958e-38   5.532e-38   -37.002   -37.257    -0.255     41.54
Fe(2)         2.424e-06
   Fe+2            1.591e-06   9.048e-07    -5.798    -6.043    -0.245    -23.05
   FeHCO3+         7.452e-07   6.409e-07    -6.128    -6.193    -0.066     (0)  
   FeCO3           6.309e-08   6.347e-08    -7.200    -7.197     0.003     (0)  
   FeCl+           1.484e-08   1.276e-08    -7.829    -7.894    -0.066     (0)  
   FeSO4           6.118e-09   6.156e-09    -8.213    -8.211     0.003     28.93
   FeHPO4          2.186e-09   2.199e-09    -8.660    -8.658     0.003     (0)  
   FeOH+           1.258e-09   1.086e-09    -8.900    -8.964    -0.064     (0)  
   FeH2PO4+        4.384e-10   3.794e-10    -9.358    -9.421    -0.063     (0)  
   FeF+            1.344e-11   1.156e-11   -10.872   -10.937    -0.066     (0)  
   Fe(OH)2         2.852e-14   2.870e-14   -13.545   -13.542     0.003     (0)  
   FeHSO4+         3.593e-15   3.090e-15   -14.445   -14.510    -0.066     (0)  
   Fe(OH)3-        1.354e-17   1.169e-17   -16.868   -16.932    -0.064     (0)  
Fe(3)         5.060e-08
   Fe(OH)2+        2.967e-08   2.568e-08    -7.528    -7.590    -0.063     (0)  
   Fe(OH)3         2.076e-08   2.088e-08    -7.683    -7.680     0.003     (0)  
   Fe(OH)4-        1.469e-10   1.271e-10    -9.833    -9.896    -0.063     (0)  
   FeOH+2          2.016e-11   1.120e-11   -10.696   -10.951    -0.255     (0)  
   Fe+3            1.095e-15   3.527e-16   -14.961   -15.453    -0.492     (0)  
   FeF+2           1.001e-15   5.564e-16   -14.999   -15.255    -0.255     (0)  
   FeSO4+          1.609e-16   1.389e-16   -15.793   -15.857    -0.064     (0)  
   FeH2PO4+2       1.416e-16   7.943e-17   -15.849   -16.100    -0.251     (0)  
   FeCl+2          1.167e-16   6.482e-17   -15.933   -16.188    -0.255     (0)  
   FeHPO4+         3.940e-17   3.401e-17   -16.405   -16.468    -0.064     (0)  
   FeF2+           2.699e-17   2.330e-17   -16.569   -16.633    -0.064     (0)  
   FeCl2+          5.753e-18   4.967e-18   -17.240   -17.304    -0.064     (0)  
   Fe(SO4)2-       1.711e-19   1.471e-19   -18.767   -18.832    -0.066     (0)  
   Fe2(OH)2+4      7.410e-20   6.633e-21   -19.130   -20.178    -1.048     (0)  
   FeF3            4.437e-20   4.464e-20   -19.353   -19.350     0.003     (0)  
   FeCl3           5.044e-21   5.075e-21   -20.297   -20.295     0.003     (0)  
   FeHSO4+2        5.532e-23   3.026e-23   -22.257   -22.519    -0.262     (0)  
   Fe3(OH)4+5      6.985e-24   1.609e-25   -23.156   -24.793    -1.638     (0)  
H(0)          9.976e-26
   H2              4.988e-26   5.020e-26   -25.302   -25.299     0.003     13.58
K             4.584e-05
   K+              4.571e-05   3.911e-05    -4.340    -4.408    -0.068      8.47
   KHCO3           9.433e-08   9.490e-08    -7.025    -7.023     0.003     19.97
   KSO4-           3.378e-08   2.958e-08    -7.471    -7.529    -0.058     22.90
   KHPO4-          5.381e-11   4.657e-11   -10.269   -10.332    -0.063     39.59
Mg            8.773e-04
   Mg+2            8.282e-04   4.714e-04    -3.082    -3.327    -0.245    -20.90
   MgHCO3+         4.365e-05   3.745e-05    -4.360    -4.427    -0.067      4.96
   MgSO4           4.210e-06   4.261e-06    -5.376    -5.371     0.005     -2.09
   MgCO3           1.030e-06   1.037e-06    -5.987    -5.984     0.003    -17.07
   MgHPO4          1.562e-07   1.572e-07    -6.806    -6.804     0.003     (0)  
   MgF+            3.438e-08   2.959e-08    -7.464    -7.529    -0.065    -10.54
   MgH2PO4+        1.084e-08   9.380e-09    -7.965    -8.028    -0.063     (0)  
   MgOH+           5.780e-09   5.034e-09    -8.238    -8.298    -0.060     (0)  
   MgPO4-          4.058e-09   3.512e-09    -8.392    -8.454    -0.063     (0)  
   Mg(SO4)2-2      1.685e-09   9.822e-10    -8.773    -9.008    -0.234     34.02
Mn(2)         5.067e-05
   Mn+2            3.216e-05   1.830e-05    -4.493    -4.738    -0.245    -19.71
   MnHCO3+         1.338e-05   1.155e-05    -4.874    -4.937    -0.064     (0)  
   MnCO3           4.224e-06   4.250e-06    -5.374    -5.372     0.003     (0)  
   MnCl+           8.821e-07   7.615e-07    -6.054    -6.118    -0.064     -8.28
   MnSO4           1.508e-08   1.499e-08    -7.822    -7.824    -0.003     16.92
   MnCl2           3.376e-09   3.396e-09    -8.472    -8.469     0.003    110.25
   MnOH+           1.850e-09   1.597e-09    -8.733    -8.797    -0.064     (0)  
   MnF+            1.873e-10   1.617e-10    -9.727    -9.791    -0.064     (0)  
   MnCl3-          1.107e-11   9.557e-12   -10.956   -11.020    -0.064     44.02
   Mn(OH)3-        7.168e-19   6.188e-19   -18.145   -18.208    -0.064     (0)  
Mn(3)         1.612e-27
   Mn+3            1.612e-27   5.192e-28   -26.793   -27.285    -0.492     (0)  
Na            7.143e-03
   Na+             7.122e-03   6.144e-03    -2.147    -2.212    -0.064     -2.33
   NaHCO3          1.802e-05   1.819e-05    -4.744    -4.740     0.004     16.11
   NaSO4-          2.721e-06   2.341e-06    -5.565    -5.631    -0.065     16.49
   NaHPO4-         8.451e-09   7.314e-09    -8.073    -8.136    -0.063     35.41
   NaF             4.490e-09   4.517e-09    -8.348    -8.345     0.003      6.52
   Na2SO4          1.336e-12   1.343e-12   -11.874   -11.872     0.002     57.71
O(0)          0.000e+00
   O2              0.000e+00   0.000e+00   -47.215   -47.212     0.003     28.89
P             3.057e-06
   HPO4-2          1.099e-06   6.106e-07    -5.959    -6.214    -0.255      7.44
   H2PO4-          9.667e-07   8.366e-07    -6.015    -6.077    -0.063     33.66
   CaHPO4          7.355e-07   7.399e-07    -6.133    -6.131     0.003     (0)  
   MgHPO4          1.562e-07   1.572e-07    -6.806    -6.804     0.003     (0)  
   CaH2PO4+        5.417e-08   4.688e-08    -7.266    -7.329    -0.063     (0)  
   CaPO4-          1.915e-08   1.657e-08    -7.718    -7.781    -0.063     (0)  
   MgH2PO4+        1.084e-08   9.380e-09    -7.965    -8.028    -0.063     (0)  
   NaHPO4-         8.451e-09   7.314e-09    -8.073    -8.136    -0.063     35.41
   MgPO4-          4.058e-09   3.512e-09    -8.392    -8.454    -0.063     (0)  
   FeHPO4          2.186e-09   2.199e-09    -8.660    -8.658     0.003     (0)  
   FeH2PO4+        4.384e-10   3.794e-10    -9.358    -9.421    -0.063     (0)  
   KHPO4-          5.381e-11   4.657e-11   -10.269   -10.332    -0.063     39.59
   PO4-3           1.017e-11   2.558e-12   -10.993   -11.592    -0.599    -21.09
   H3PO4           7.821e-12   7.868e-12   -11.107   -11.104     0.003     46.33
   FeH2PO4+2       1.416e-16   7.943e-17   -15.849   -16.100    -0.251     (0)  
   FeHPO4+         3.940e-17   3.401e-17   -16.405   -16.468    -0.064     (0)  
S(6)          1.129e-04
   SO4-2           9.309e-05   5.159e-05    -4.031    -4.287    -0.256     11.63
   CaSO4           1.275e-05   1.279e-05    -4.894    -4.893     0.001      5.15
   MgSO4           4.210e-06   4.261e-06    -5.376    -5.371     0.005     -2.09
   NaSO4-          2.721e-06   2.341e-06    -5.565    -5.631    -0.065     16.49
   AmmHSO4-        3.815e-08   3.316e-08    -7.419    -7.479    -0.061     34.19
   KSO4-           3.378e-08   2.958e-08    -7.471    -7.529    -0.058     22.90
   MnSO4           1.508e-08   1.499e-08    -7.822    -7.824    -0.003     16.92
   FeSO4           6.118e-09   6.156e-09    -8.213    -8.211     0.003     28.93
   Mg(SO4)2-2      1.685e-09   9.822e-10    -8.773    -9.008    -0.234     34.02
   HSO4-           3.303e-10   2.841e-10    -9.481    -9.547    -0.066     38.94
   CaHSO4+         1.191e-11   1.025e-11   -10.924   -10.989    -0.066     (0)  
   Na2SO4          1.336e-12   1.343e-12   -11.874   -11.872     0.002     57.71
   FeHSO4+         3.593e-15   3.090e-15   -14.445   -14.510    -0.066     (0)  
   FeSO4+          1.609e-16   1.389e-16   -15.793   -15.857    -0.064     (0)  
   Fe(SO4)2-       1.711e-19   1.471e-19   -18.767   -18.832    -0.066     (0)  
   FeHSO4+2        5.532e-23   3.026e-23   -22.257   -22.519    -0.262     (0)  
Si            5.100e-05
   H4SiO4          5.094e-05   5.125e-05    -4.293    -4.290     0.003     53.73
   H3SiO4-         6.240e-08   5.353e-08    -7.205    -7.271    -0.067     27.46
   H2SiO4-2        2.762e-14   1.550e-14   -13.559   -13.810    -0.251     (0)  
   SiF6-2          9.958e-38   5.532e-38   -37.002   -37.257    -0.255     41.54

------------------------------Saturation indices-------------------------------

  Phase               SI** log IAP   log K(282 K,   1 atm)

  Amm(g)           -9.16     -7.02    2.14  Amm
  Anhydrite        -2.73     -6.81   -4.08  CaSO4
  Aragonite         0.20     -8.06   -8.25  CaCO3
  Arcanite        -10.98    -13.10   -2.12  K2SO4
  Calcite           0.29     -8.06   -8.35  CaCO3
  Chalcedony       -0.55     -4.29   -3.74  SiO2
  Chrysotile      -10.12     24.10   34.22  Mg3Si2O5(OH)4
  CO2(g)           -1.53     -2.79   -1.26  CO2
  Dolomite         -0.04    -16.92  -16.88  CaMg(CO3)2
  Epsomite         -5.78     -7.62   -1.83  MgSO4:7H2O
  Fe(OH)3(a)        0.99      5.88    4.89  Fe(OH)3
  Fluorite         -3.51    -14.31  -10.80  CaF2
  Goethite          6.29      5.88   -0.42  FeOOH
  Gypsum           -2.30     -6.81   -4.51  CaSO4:2H2O
  H2(g)           -22.24    -25.30   -3.06  H2
  H2O(g)           -1.93     -0.00    1.92  H2O
  Halite           -5.76     -4.20    1.56  NaCl
  Hausmannite     -14.41     50.67   65.08  Mn3O4
  Hematite         14.52     11.75   -2.77  Fe2O3
  Hexahydrite      -6.03     -7.62   -1.59  MgSO4:6H2O
  Hydroxyapatite   -0.85     -2.82   -1.97  Ca5(PO4)3OH
  Jarosite-K       -8.73    -16.68   -7.95  KFe3(SO4)2(OH)6
  Kieserite        -6.29     -7.61   -1.32  MgSO4:H2O
  Manganite        -4.75     20.59   25.34  MnOOH
  Melanterite      -7.92    -10.33   -2.42  FeSO4:7H2O
  Mirabilite       -6.92     -8.71   -1.79  Na2SO4:10H2O
  O2(g)           -44.45    -47.21   -2.76  O2
  Pyrochroite      -5.72      9.48   15.20  Mn(OH)2
  Pyrolusite      -12.30     31.70   44.00  MnO2:H2O
  Quartz           -0.07     -4.29   -4.22  SiO2
  Rhodochrosite     0.80    -10.27  -11.07  MnCO3
  Sepiolite        -7.27      8.92   16.19  Mg2Si3O7.5OH:3H2O
  Sepiolite(d)     -9.74      8.92   18.66  Mg2Si3O7.5OH:3H2O
  Siderite         -0.79    -11.58  -10.79  FeCO3
  SiO2(a)          -1.44     -4.29   -2.85  SiO2
  Sylvite          -7.22     -6.40    0.82  KCl
  Talc             -7.74     15.52   23.26  Mg3Si4O10(OH)2
  Thenardite       -9.56     -8.71    0.85  Na2SO4
  Vivianite        -5.32    -41.32  -36.00  Fe3(PO4)2:8H2O

**For a gas, SI = log10(fugacity). Fugacity = pressure * phi / 1 atm.
  For ideal gases, phi = 1.

------------------
End of simulation.
------------------

------------------------------------
Reading input data for simulation 2.
------------------------------------

