WARNING: Database file from DATABASE keyword is used; command line argument ignored.
   Input file: dissolve_only
  Output file: dissolve_only.out
Database file: ../database/phreeqc.dat

------------------
Reading data base.
------------------

	SOLUTION_MASTER_SPECIES
	SOLUTION_SPECIES
	PHASES
	GAS_BINARY_PARAMETERS
	EXCHANGE_MASTER_SPECIES
	EXCHANGE_SPECIES
	SURFACE_MASTER_SPECIES
	SURFACE_SPECIES
	MEAN_GAMMAS
	RATES
	END
------------------------------------
Reading input data for simulation 1.
------------------------------------

	DATABASE ../database/phreeqc.dat
	SELECTED_OUTPUT 101
	    file                 dissolve_only_101.sel
	USER_PUNCH 101
	    headings Mu SC
	    start
	10 PUNCH STR_F$(MU, 20, 12)
	20 PUNCH STR_F$(SC, 20, 10)
	    end
	SOLUTION 1
	EQUILIBRIUM_PHASES 1
		Dolomite	0.0	0.00001 dissolve_only
	END
-------------------------------------------
Beginning of initial solution calculations.
-------------------------------------------

Initial solution 1.	

-----------------------------Solution composition------------------------------

	Elements           Molality       Moles

	Pure water     

----------------------------Description of solution----------------------------

                                       pH  =   7.000    
                                       pe  =   4.000    
      Specific Conductance (µS/cm,  25°C)  = 0
                          Density (g/cm³)  =   0.99704
                               Volume (L)  =   1.00297
                        Viscosity (mPa s)  =   0.89002
                        Activity of water  =   1.000
                 Ionic strength (mol/kgw)  =   1.007e-07
                       Mass of water (kg)  =   1.000e+00
                 Total alkalinity (eq/kg)  =   1.217e-09
                         Temperature (°C)  =  25.00
                  Electrical balance (eq)  =  -1.217e-09
 Percent error, 100*(Cat-|An|)/(Cat+|An|)  =  -0.60
                               Iterations  =   0
                                  Total H  = 1.110124e+02
                                  Total O  = 5.550622e+01

----------------------------Distribution of species----------------------------

                                               Log       Log       Log    mole V
   Species          Molality    Activity  Molality  Activity     Gamma   cm³/mol

   OH-             1.013e-07   1.012e-07    -6.995    -6.995    -0.000     -4.14
   H+              1.001e-07   1.000e-07    -7.000    -7.000    -0.000      0.00
   H2O             5.551e+01   1.000e+00     1.744     0.000     0.000     18.07
H(0)          1.416e-25
   H2              7.079e-26   7.079e-26   -25.150   -25.150     0.000     14.99
O(0)          0.000e+00
   O2              0.000e+00   0.000e+00   -42.063   -42.063     0.000     30.40

------------------------------Saturation indices-------------------------------

  Phase               SI** log IAP   log K(298 K,   1 atm)

  H2(g)           -22.05    -25.15   -3.10  H2
  H2O(g)           -1.50      0.00    1.50  H2O
  O2(g)           -39.17    -42.06   -2.89  O2

**For a gas, SI = log10(fugacity). Fugacity = pressure * phi / 1 atm.
  For ideal gases, phi = 1.

-----------------------------------------
Beginning of batch-reaction calculations.
-----------------------------------------

Reaction step 1.

Using solution 1.	
Using pure phase assemblage 1.	

-------------------------------Phase assemblage--------------------------------

                                                      Moles in assemblage
Phase               SI  log IAP  log K(T, P)   Initial       Final       Delta

Dolomite         -4.58   -21.67    -17.08    1.000e-05           0  -1.000e-05

-----------------------------Solution composition------------------------------

	Elements           Molality       Moles

	C                 2.000e-05   2.000e-05
	Ca                1.000e-05   1.000e-05
	Mg                1.000e-05   1.000e-05

----------------------------Description of solution----------------------------

                                       pH  =   9.254      Charge balance
                                       pe  =  -3.269      Adjusted to redox equilibrium
      Specific Conductance (µS/cm,  25°C)  = 6
                          Density (g/cm³)  =   0.99705
                               Volume (L)  =   1.00297
                        Viscosity (mPa s)  =   0.89013
                        Activity of water  =   1.000
                 Ionic strength (mol/kgw)  =   6.134e-05
                       Mass of water (kg)  =   1.000e+00
                 Total alkalinity (eq/kg)  =   4.000e-05
                       Total CO2 (mol/kg)  =   2.000e-05
                         Temperature (°C)  =  25.00
                  Electrical balance (eq)  =  -1.217e-09
 Percent error, 100*(Cat-|An|)/(Cat+|An|)  =  -0.00
                               Iterations  =  17
                                  Total H  = 1.110124e+02
                                  Total O  = 5.550628e+01

----------------------------Distribution of species----------------------------

                                               Log       Log       Log    mole V
   Species          Molality    Activity  Molality  Activity     Gamma   cm³/mol

   OH-             1.833e-05   1.817e-05    -4.737    -4.741    -0.004     -4.13
   H+              5.622e-10   5.572e-10    -9.250    -9.254    -0.004      0.00
   H2O             5.551e+01   1.000e+00     1.744    -0.000     0.000     18.07
C(-4)         7.392e-32
   CH4             7.392e-32   7.392e-32   -31.131   -31.131     0.000     35.46
C(4)          2.000e-05
   HCO3-           1.835e-05   1.818e-05    -4.736    -4.740    -0.004     24.52
   CO3-2           1.587e-06   1.531e-06    -5.799    -5.815    -0.016     -4.78
   CaCO3           2.473e-08   2.473e-08    -7.607    -7.607     0.000    -14.60
   CO2             2.278e-08   2.278e-08    -7.642    -7.642     0.000     34.79
   MgCO3           1.397e-08   1.397e-08    -7.855    -7.855     0.000    -17.09
   MgHCO3+         2.054e-09   2.036e-09    -8.687    -8.691    -0.004      5.46
   CaHCO3+         1.547e-14   1.533e-14   -13.810   -13.814    -0.004      9.65
   (CO2)2          8.435e-18   8.435e-18   -17.074   -17.074     0.000     68.75
Ca            1.000e-05
   Ca+2            9.972e-06   9.617e-06    -5.001    -5.017    -0.016    -18.23
   CaCO3           2.473e-08   2.473e-08    -7.607    -7.607     0.000    -14.60
   CaOH+           2.891e-09   2.865e-09    -8.539    -8.543    -0.004     (0)  
   CaHCO3+         1.547e-14   1.533e-14   -13.810   -13.814    -0.004      9.65
H(0)          1.518e-15
   H2              7.590e-16   7.590e-16   -15.120   -15.120     0.000     14.99
Mg            1.000e-05
   Mg+2            9.921e-06   9.568e-06    -5.003    -5.019    -0.016    -21.91
   MgOH+           6.292e-08   6.235e-08    -7.201    -7.205    -0.004     (0)  
   MgCO3           1.397e-08   1.397e-08    -7.855    -7.855     0.000    -17.09
   MgHCO3+         2.054e-09   2.036e-09    -8.687    -8.691    -0.004      5.46
O(0)          0.000e+00
   O2              0.000e+00   0.000e+00   -62.123   -62.123     0.000     30.40

------------------------------Saturation indices-------------------------------

  Phase               SI** log IAP   log K(298 K,   1 atm)

  Aragonite        -2.50    -10.83   -8.34  CaCO3
  Calcite          -2.38    -10.83   -8.45  CaCO3
  CH4(g)          -28.33    -31.13   -2.80  CH4
  CO2(g)           -6.17     -7.64   -1.47  CO2
  Dolomite         -4.58    -21.67  -17.08  CaMg(CO3)2
  H2(g)           -12.02    -15.12   -3.10  H2
  H2O(g)           -1.50     -0.00    1.50  H2O
  O2(g)           -59.23    -62.12   -2.89  O2

**For a gas, SI = log10(fugacity). Fugacity = pressure * phi / 1 atm.
  For ideal gases, phi = 1.

------------------
End of simulation.
------------------

------------------------------------
Reading input data for simulation 2.
------------------------------------

	SOLUTION 1
	EQUILIBRIUM_PHASES 1
		Dolomite	0.0	0.1 dissolve_only
	END
-------------------------------------------
Beginning of initial solution calculations.
-------------------------------------------

Initial solution 1.	

-----------------------------Solution composition------------------------------

	Elements           Molality       Moles

	Pure water     

----------------------------Description of solution----------------------------

                                       pH  =   7.000    
                                       pe  =   4.000    
      Specific Conductance (µS/cm,  25°C)  = 0
                          Density (g/cm³)  =   0.99704
                               Volume (L)  =   1.00297
                        Viscosity (mPa s)  =   0.89002
                        Activity of water  =   1.000
                 Ionic strength (mol/kgw)  =   1.007e-07
                       Mass of water (kg)  =   1.000e+00
                 Total alkalinity (eq/kg)  =   1.217e-09
                         Temperature (°C)  =  25.00
                  Electrical balance (eq)  =  -1.217e-09
 Percent error, 100*(Cat-|An|)/(Cat+|An|)  =  -0.60
                               Iterations  =   0
                                  Total H  = 1.110124e+02
                                  Total O  = 5.550622e+01

----------------------------Distribution of species----------------------------

                                               Log       Log       Log    mole V
   Species          Molality    Activity  Molality  Activity     Gamma   cm³/mol

   OH-             1.013e-07   1.012e-07    -6.995    -6.995    -0.000     -4.14
   H+              1.001e-07   1.000e-07    -7.000    -7.000    -0.000      0.00
   H2O             5.551e+01   1.000e+00     1.744     0.000     0.000     18.07
H(0)          1.416e-25
   H2              7.079e-26   7.079e-26   -25.150   -25.150     0.000     14.99
O(0)          0.000e+00
   O2              0.000e+00   0.000e+00   -42.063   -42.063     0.000     30.40

------------------------------Saturation indices-------------------------------

  Phase               SI** log IAP   log K(298 K,   1 atm)

  H2(g)           -22.05    -25.15   -3.10  H2
  H2O(g)           -1.50      0.00    1.50  H2O
  O2(g)           -39.17    -42.06   -2.89  O2

**For a gas, SI = log10(fugacity). Fugacity = pressure * phi / 1 atm.
  For ideal gases, phi = 1.

-----------------------------------------
Beginning of batch-reaction calculations.
-----------------------------------------

Reaction step 1.

Using solution 1.	
Using pure phase assemblage 1.	

-------------------------------Phase assemblage--------------------------------

                                                      Moles in assemblage
Phase               SI  log IAP  log K(T, P)   Initial       Final       Delta

Dolomite          0.00   -17.08    -17.08    1.000e-01   9.992e-02  -7.806e-05

-----------------------------Solution composition------------------------------

	Elements           Molality       Moles

	C                 1.561e-04   1.561e-04
	Ca                7.806e-05   7.806e-05
	Mg                7.806e-05   7.806e-05

----------------------------Description of solution----------------------------

                                       pH  =   9.976      Charge balance
                                       pe  =  -3.991      Adjusted to redox equilibrium
      Specific Conductance (µS/cm,  25°C)  = 43
                          Density (g/cm³)  =   0.99706
                               Volume (L)  =   1.00296
                        Viscosity (mPa s)  =   0.89041
                        Activity of water  =   1.000
                 Ionic strength (mol/kgw)  =   4.887e-04
                       Mass of water (kg)  =   1.000e+00
                 Total alkalinity (eq/kg)  =   3.122e-04
                       Total CO2 (mol/kg)  =   1.561e-04
                         Temperature (°C)  =  25.00
                  Electrical balance (eq)  =  -1.217e-09
 Percent error, 100*(Cat-|An|)/(Cat+|An|)  =  -0.00
                               Iterations  =  18
                                  Total H  = 1.110124e+02
                                  Total O  = 5.550669e+01

----------------------------Distribution of species----------------------------

                                               Log       Log       Log    mole V
   Species          Molality    Activity  Molality  Activity     Gamma   cm³/mol

   OH-             9.815e-05   9.569e-05    -4.008    -4.019    -0.011     -4.12
   H+              1.084e-10   1.058e-10    -9.965    -9.976    -0.011      0.00
   H2O             5.551e+01   1.000e+00     1.744    -0.000     0.000     18.07
C(-4)         7.565e-32
   CH4             7.565e-32   7.565e-32   -31.121   -31.121     0.000     35.46
C(4)          1.561e-04
   HCO3-           1.004e-04   9.797e-05    -3.998    -4.009    -0.011     24.54
   CO3-2           4.800e-05   4.344e-05    -4.319    -4.362    -0.043     -4.72
   CaCO3           4.828e-06   4.828e-06    -5.316    -5.316     0.000    -14.60
   MgCO3           2.736e-06   2.736e-06    -5.563    -5.563     0.000    -17.09
   MgHCO3+         7.760e-08   7.567e-08    -7.110    -7.121    -0.011      5.47
   CO2             2.330e-08   2.330e-08    -7.633    -7.633     0.000     34.79
   CaHCO3+         5.826e-13   5.683e-13   -12.235   -12.245    -0.011      9.66
   (CO2)2          8.825e-18   8.825e-18   -17.054   -17.054     0.000     68.75
Ca            7.806e-05
   Ca+2            7.312e-05   6.616e-05    -4.136    -4.179    -0.043    -18.17
   CaCO3           4.828e-06   4.828e-06    -5.316    -5.316     0.000    -14.60
   CaOH+           1.065e-07   1.038e-07    -6.973    -6.984    -0.011     (0)  
   CaHCO3+         5.826e-13   5.683e-13   -12.235   -12.245    -0.011      9.66
H(0)          1.518e-15
   H2              7.590e-16   7.591e-16   -15.120   -15.120     0.000     14.99
Mg            7.806e-05
   Mg+2            7.292e-05   6.601e-05    -4.137    -4.180    -0.043    -21.86
   MgCO3           2.736e-06   2.736e-06    -5.563    -5.563     0.000    -17.09
   MgOH+           2.323e-06   2.266e-06    -5.634    -5.645    -0.011     (0)  
   MgHCO3+         7.760e-08   7.567e-08    -7.110    -7.121    -0.011      5.47
O(0)          0.000e+00
   O2              0.000e+00   0.000e+00   -62.123   -62.123     0.000     30.40

------------------------------Saturation indices-------------------------------

  Phase               SI** log IAP   log K(298 K,   1 atm)

  Aragonite        -0.21     -8.54   -8.34  CaCO3
  Calcite          -0.09     -8.54   -8.45  CaCO3
  CH4(g)          -28.32    -31.12   -2.80  CH4
  CO2(g)           -6.16     -7.63   -1.47  CO2
  Dolomite          0.00    -17.08  -17.08  CaMg(CO3)2
  H2(g)           -12.02    -15.12   -3.10  H2
  H2O(g)           -1.50     -0.00    1.50  H2O
  O2(g)           -59.23    -62.12   -2.89  O2

**For a gas, SI = log10(fugacity). Fugacity = pressure * phi / 1 atm.
  For ideal gases, phi = 1.

------------------
End of simulation.
------------------

------------------------------------
Reading input data for simulation 3.
------------------------------------

	SOLUTION 1
	EQUILIBRIUM_PHASES 1
		Dolomite	1.0	0.1 dissolve_only
	SAVE solution 2
	END
-------------------------------------------
Beginning of initial solution calculations.
-------------------------------------------

Initial solution 1.	

-----------------------------Solution composition------------------------------

	Elements           Molality       Moles

	Pure water     

----------------------------Description of solution----------------------------

                                       pH  =   7.000    
                                       pe  =   4.000    
      Specific Conductance (µS/cm,  25°C)  = 0
                          Density (g/cm³)  =   0.99704
                               Volume (L)  =   1.00297
                        Viscosity (mPa s)  =   0.89002
                        Activity of water  =   1.000
                 Ionic strength (mol/kgw)  =   1.007e-07
                       Mass of water (kg)  =   1.000e+00
                 Total alkalinity (eq/kg)  =   1.217e-09
                         Temperature (°C)  =  25.00
                  Electrical balance (eq)  =  -1.217e-09
 Percent error, 100*(Cat-|An|)/(Cat+|An|)  =  -0.60
                               Iterations  =   0
                                  Total H  = 1.110124e+02
                                  Total O  = 5.550622e+01

----------------------------Distribution of species----------------------------

                                               Log       Log       Log    mole V
   Species          Molality    Activity  Molality  Activity     Gamma   cm³/mol

   OH-             1.013e-07   1.012e-07    -6.995    -6.995    -0.000     -4.14
   H+              1.001e-07   1.000e-07    -7.000    -7.000    -0.000      0.00
   H2O             5.551e+01   1.000e+00     1.744     0.000     0.000     18.07
H(0)          1.416e-25
   H2              7.079e-26   7.079e-26   -25.150   -25.150     0.000     14.99
O(0)          0.000e+00
   O2              0.000e+00   0.000e+00   -42.063   -42.063     0.000     30.40

------------------------------Saturation indices-------------------------------

  Phase               SI** log IAP   log K(298 K,   1 atm)

  H2(g)           -22.05    -25.15   -3.10  H2
  H2O(g)           -1.50      0.00    1.50  H2O
  O2(g)           -39.17    -42.06   -2.89  O2

**For a gas, SI = log10(fugacity). Fugacity = pressure * phi / 1 atm.
  For ideal gases, phi = 1.

-----------------------------------------
Beginning of batch-reaction calculations.
-----------------------------------------

Reaction step 1.

Using solution 1.	
Using pure phase assemblage 1.	

-------------------------------Phase assemblage--------------------------------

                                                      Moles in assemblage
Phase               SI  log IAP  log K(T, P)   Initial       Final       Delta

Dolomite          1.00   -16.08    -17.08    1.000e-01   9.987e-02  -1.334e-04

-----------------------------Solution composition------------------------------

	Elements           Molality       Moles

	C                 2.669e-04   2.669e-04
	Ca                1.334e-04   1.334e-04
	Mg                1.334e-04   1.334e-04

----------------------------Description of solution----------------------------

                                       pH  =  10.123      Charge balance
                                       pe  =  -4.138      Adjusted to redox equilibrium
      Specific Conductance (µS/cm,  25°C)  = 67
                          Density (g/cm³)  =   0.99707
                               Volume (L)  =   1.00296
                        Viscosity (mPa s)  =   0.89056
                        Activity of water  =   1.000
                 Ionic strength (mol/kgw)  =   8.165e-04
                       Mass of water (kg)  =   1.000e+00
                 Total alkalinity (eq/kg)  =   5.338e-04
                       Total CO2 (mol/kg)  =   2.669e-04
                         Temperature (°C)  =  25.00
                  Electrical balance (eq)  =  -1.217e-09
 Percent error, 100*(Cat-|An|)/(Cat+|An|)  =  -0.00
                               Iterations  =  18
                                  Total H  = 1.110124e+02
                                  Total O  = 5.550702e+01

----------------------------Distribution of species----------------------------

                                               Log       Log       Log    mole V
   Species          Molality    Activity  Molality  Activity     Gamma   cm³/mol

   OH-             1.388e-04   1.344e-04    -3.858    -3.872    -0.014     -4.11
   H+              7.768e-11   7.531e-11   -10.110   -10.123    -0.013      0.00
   H2O             5.551e+01   1.000e+00     1.744    -0.000     0.000     18.07
C(-4)         7.678e-32
   CH4             7.678e-32   7.680e-32   -31.115   -31.115     0.000     35.46
C(4)          2.669e-04
   HCO3-           1.441e-04   1.395e-04    -3.841    -3.855    -0.014     24.55
   CO3-2           9.874e-05   8.690e-05    -4.006    -4.061    -0.055     -4.69
   CaCO3           1.516e-05   1.516e-05    -4.819    -4.819     0.000    -14.60
   MgCO3           8.711e-06   8.712e-06    -5.060    -5.060     0.000    -17.09
   MgHCO3+         1.772e-07   1.716e-07    -6.752    -6.766    -0.014      5.47
   CO2             2.363e-08   2.363e-08    -7.627    -7.627     0.000     34.79
   CaHCO3+         1.312e-12   1.271e-12   -11.882   -11.896    -0.014      9.67
   (CO2)2          9.076e-18   9.077e-18   -17.042   -17.042     0.000     68.75
Ca            1.334e-04
   Ca+2            1.180e-04   1.039e-04    -3.928    -3.984    -0.056    -18.15
   CaCO3           1.516e-05   1.516e-05    -4.819    -4.819     0.000    -14.60
   CaOH+           2.364e-07   2.289e-07    -6.626    -6.640    -0.014     (0)  
   CaHCO3+         1.312e-12   1.271e-12   -11.882   -11.896    -0.014      9.67
H(0)          1.518e-15
   H2              7.591e-16   7.593e-16   -15.120   -15.120     0.000     14.99
Mg            1.334e-04
   Mg+2            1.193e-04   1.051e-04    -3.923    -3.979    -0.055    -21.83
   MgCO3           8.711e-06   8.712e-06    -5.060    -5.060     0.000    -17.09
   MgOH+           5.228e-06   5.065e-06    -5.282    -5.295    -0.014     (0)  
   MgHCO3+         1.772e-07   1.716e-07    -6.752    -6.766    -0.014      5.47
O(0)          0.000e+00
   O2              0.000e+00   0.000e+00   -62.123   -62.123     0.000     30.40

------------------------------Saturation indices-------------------------------

  Phase               SI** log IAP   log K(298 K,   1 atm)

  Aragonite         0.29     -8.04   -8.34  CaCO3
  Calcite           0.40     -8.04   -8.45  CaCO3
  CH4(g)          -28.31    -31.11   -2.80  CH4
  CO2(g)           -6.16     -7.63   -1.47  CO2
  Dolomite          1.00    -16.08  -17.08  CaMg(CO3)2
  H2(g)           -12.02    -15.12   -3.10  H2
  H2O(g)           -1.50     -0.00    1.50  H2O
  O2(g)           -59.23    -62.12   -2.89  O2

**For a gas, SI = log10(fugacity). Fugacity = pressure * phi / 1 atm.
  For ideal gases, phi = 1.

------------------
End of simulation.
------------------

------------------------------------
Reading input data for simulation 4.
------------------------------------

	SOLUTION 1
	EQUILIBRIUM_PHASES 1
		Dolomite	-1.0	0.1 dissolve_only
	SAVE solution 3
	END
-------------------------------------------
Beginning of initial solution calculations.
-------------------------------------------

Initial solution 1.	

-----------------------------Solution composition------------------------------

	Elements           Molality       Moles

	Pure water     

----------------------------Description of solution----------------------------

                                       pH  =   7.000    
                                       pe  =   4.000    
      Specific Conductance (µS/cm,  25°C)  = 0
                          Density (g/cm³)  =   0.99704
                               Volume (L)  =   1.00297
                        Viscosity (mPa s)  =   0.89002
                        Activity of water  =   1.000
                 Ionic strength (mol/kgw)  =   1.007e-07
                       Mass of water (kg)  =   1.000e+00
                 Total alkalinity (eq/kg)  =   1.217e-09
                         Temperature (°C)  =  25.00
                  Electrical balance (eq)  =  -1.217e-09
 Percent error, 100*(Cat-|An|)/(Cat+|An|)  =  -0.60
                               Iterations  =   0
                                  Total H  = 1.110124e+02
                                  Total O  = 5.550622e+01

----------------------------Distribution of species----------------------------

                                               Log       Log       Log    mole V
   Species          Molality    Activity  Molality  Activity     Gamma   cm³/mol

   OH-             1.013e-07   1.012e-07    -6.995    -6.995    -0.000     -4.14
   H+              1.001e-07   1.000e-07    -7.000    -7.000    -0.000      0.00
   H2O             5.551e+01   1.000e+00     1.744     0.000     0.000     18.07
H(0)          1.416e-25
   H2              7.079e-26   7.079e-26   -25.150   -25.150     0.000     14.99
O(0)          0.000e+00
   O2              0.000e+00   0.000e+00   -42.063   -42.063     0.000     30.40

------------------------------Saturation indices-------------------------------

  Phase               SI** log IAP   log K(298 K,   1 atm)

  H2(g)           -22.05    -25.15   -3.10  H2
  H2O(g)           -1.50      0.00    1.50  H2O
  O2(g)           -39.17    -42.06   -2.89  O2

**For a gas, SI = log10(fugacity). Fugacity = pressure * phi / 1 atm.
  For ideal gases, phi = 1.

-----------------------------------------
Beginning of batch-reaction calculations.
-----------------------------------------

Reaction step 1.

Using solution 1.	
Using pure phase assemblage 1.	

-------------------------------Phase assemblage--------------------------------

                                                      Moles in assemblage
Phase               SI  log IAP  log K(T, P)   Initial       Final       Delta

Dolomite         -1.00   -18.08    -17.08    1.000e-01   9.995e-02  -4.770e-05

-----------------------------Solution composition------------------------------

	Elements           Molality       Moles

	C                 9.539e-05   9.539e-05
	Ca                4.770e-05   4.770e-05
	Mg                4.770e-05   4.770e-05

----------------------------Description of solution----------------------------

                                       pH  =   9.824      Charge balance
                                       pe  =  -3.839      Adjusted to redox equilibrium
      Specific Conductance (µS/cm,  25°C)  = 28
                          Density (g/cm³)  =   0.99705
                               Volume (L)  =   1.00296
                        Viscosity (mPa s)  =   0.89031
                        Activity of water  =   1.000
                 Ionic strength (mol/kgw)  =   2.999e-04
                       Mass of water (kg)  =   1.000e+00
                 Total alkalinity (eq/kg)  =   1.908e-04
                       Total CO2 (mol/kg)  =   9.539e-05
                         Temperature (°C)  =  25.00
                  Electrical balance (eq)  =  -1.217e-09
 Percent error, 100*(Cat-|An|)/(Cat+|An|)  =  -0.00
                               Iterations  =  18
                                  Total H  = 1.110124e+02
                                  Total O  = 5.550650e+01

----------------------------Distribution of species----------------------------

                                               Log       Log       Log    mole V
   Species          Molality    Activity  Molality  Activity     Gamma   cm³/mol

   OH-             6.879e-05   6.743e-05    -4.162    -4.171    -0.009     -4.12
   H+              1.530e-10   1.501e-10    -9.815    -9.824    -0.008      0.00
   H2O             5.551e+01   1.000e+00     1.744    -0.000     0.000     18.07
C(-4)         7.494e-32
   CH4             7.494e-32   7.495e-32   -31.125   -31.125     0.000     35.46
C(4)          9.539e-05
   HCO3-           6.980e-05   6.844e-05    -4.156    -4.165    -0.009     24.54
   CO3-2           2.314e-05   2.138e-05    -4.636    -4.670    -0.034     -4.74
   CaCO3           1.531e-06   1.531e-06    -5.815    -5.815     0.000    -14.60
   MgCO3           8.629e-07   8.630e-07    -6.064    -6.064     0.000    -17.09
   MgHCO3+         3.455e-08   3.387e-08    -7.462    -7.470    -0.009      5.46
   CO2             2.309e-08   2.310e-08    -7.636    -7.636     0.000     34.79
   CaHCO3+         2.608e-13   2.557e-13   -12.584   -12.592    -0.009      9.66
   (CO2)2          8.671e-18   8.672e-18   -17.062   -17.062     0.000     68.75
Ca            4.770e-05
   Ca+2            4.612e-05   4.262e-05    -4.336    -4.370    -0.034    -18.19
   CaCO3           1.531e-06   1.531e-06    -5.815    -5.815     0.000    -14.60
   CaOH+           4.807e-08   4.712e-08    -7.318    -7.327    -0.009     (0)  
   CaHCO3+         2.608e-13   2.557e-13   -12.584   -12.592    -0.009      9.66
H(0)          1.518e-15
   H2              7.589e-16   7.590e-16   -15.120   -15.120     0.000     14.99
Mg            4.770e-05
   Mg+2            4.576e-05   4.229e-05    -4.340    -4.374    -0.034    -21.87
   MgOH+           1.043e-06   1.023e-06    -5.982    -5.990    -0.009     (0)  
   MgCO3           8.629e-07   8.630e-07    -6.064    -6.064     0.000    -17.09
   MgHCO3+         3.455e-08   3.387e-08    -7.462    -7.470    -0.009      5.46
O(0)          0.000e+00
   O2              0.000e+00   0.000e+00   -62.123   -62.123     0.000     30.40

------------------------------Saturation indices-------------------------------

  Phase               SI** log IAP   log K(298 K,   1 atm)

  Aragonite        -0.70     -9.04   -8.34  CaCO3
  Calcite          -0.59     -9.04   -8.45  CaCO3
  CH4(g)          -28.32    -31.13   -2.80  CH4
  CO2(g)           -6.17     -7.64   -1.47  CO2
  Dolomite         -1.00    -18.08  -17.08  CaMg(CO3)2
  H2(g)           -12.02    -15.12   -3.10  H2
  H2O(g)           -1.50     -0.00    1.50  H2O
  O2(g)           -59.23    -62.12   -2.89  O2

**For a gas, SI = log10(fugacity). Fugacity = pressure * phi / 1 atm.
  For ideal gases, phi = 1.

------------------
End of simulation.
------------------

------------------------------------
Reading input data for simulation 5.
------------------------------------

	USE solution 2
	EQUILIBRIUM_PHASES 1
		Dolomite	0.0	0.1 dissolve_only
	END
-----------------------------------------
Beginning of batch-reaction calculations.
-----------------------------------------

Reaction step 1.

Using solution 2.	Solution after simulation 3.
Using pure phase assemblage 1.	

-------------------------------Phase assemblage--------------------------------

                                                      Moles in assemblage
Phase               SI  log IAP  log K(T, P)   Initial       Final       Delta

Dolomite          1.00   -16.08    -17.08    1.000e-01   1.000e-01   0.000e+00

-----------------------------Solution composition------------------------------

	Elements           Molality       Moles

	C                 2.669e-04   2.669e-04
	Ca                1.334e-04   1.334e-04
	Mg                1.334e-04   1.334e-04

----------------------------Description of solution----------------------------

                                       pH  =  10.123      Charge balance
                                       pe  =  -4.138      Adjusted to redox equilibrium
      Specific Conductance (µS/cm,  25°C)  = 67
                          Density (g/cm³)  =   0.99707
                               Volume (L)  =   1.00296
                        Viscosity (mPa s)  =   0.89056
                        Activity of water  =   1.000
                 Ionic strength (mol/kgw)  =   8.165e-04
                       Mass of water (kg)  =   1.000e+00
                 Total alkalinity (eq/kg)  =   5.338e-04
                       Total CO2 (mol/kg)  =   2.669e-04
                         Temperature (°C)  =  25.00
                  Electrical balance (eq)  =  -1.217e-09
 Percent error, 100*(Cat-|An|)/(Cat+|An|)  =  -0.00
                               Iterations  =   0
                                  Total H  = 1.110124e+02
                                  Total O  = 5.550702e+01

----------------------------Distribution of species----------------------------

                                               Log       Log       Log    mole V
   Species          Molality    Activity  Molality  Activity     Gamma   cm³/mol

   OH-             1.388e-04   1.344e-04    -3.858    -3.872    -0.014     -4.11
   H+              7.768e-11   7.531e-11   -10.110   -10.123    -0.013      0.00
   H2O             5.551e+01   1.000e+00     1.744    -0.000     0.000     18.07
C(-4)         7.678e-32
   CH4             7.678e-32   7.680e-32   -31.115   -31.115     0.000     35.46
C(4)          2.669e-04
   HCO3-           1.441e-04   1.395e-04    -3.841    -3.855    -0.014     24.55
   CO3-2           9.874e-05   8.690e-05    -4.006    -4.061    -0.055     -4.69
   CaCO3           1.516e-05   1.516e-05    -4.819    -4.819     0.000    -14.60
   MgCO3           8.711e-06   8.712e-06    -5.060    -5.060     0.000    -17.09
   MgHCO3+         1.772e-07   1.716e-07    -6.752    -6.766    -0.014      5.47
   CO2             2.363e-08   2.363e-08    -7.627    -7.627     0.000     34.79
   CaHCO3+         1.312e-12   1.271e-12   -11.882   -11.896    -0.014      9.67
   (CO2)2          9.076e-18   9.077e-18   -17.042   -17.042     0.000     68.75
Ca            1.334e-04
   Ca+2            1.180e-04   1.039e-04    -3.928    -3.984    -0.056    -18.15
   CaCO3           1.516e-05   1.516e-05    -4.819    -4.819     0.000    -14.60
   CaOH+           2.364e-07   2.289e-07    -6.626    -6.640    -0.014     (0)  
   CaHCO3+         1.312e-12   1.271e-12   -11.882   -11.896    -0.014      9.67
H(0)          1.518e-15
   H2              7.591e-16   7.593e-16   -15.120   -15.120     0.000     14.99
Mg            1.334e-04
   Mg+2            1.193e-04   1.051e-04    -3.923    -3.979    -0.055    -21.83
   MgCO3           8.711e-06   8.712e-06    -5.060    -5.060     0.000    -17.09
   MgOH+           5.228e-06   5.065e-06    -5.282    -5.295    -0.014     (0)  
   MgHCO3+         1.772e-07   1.716e-07    -6.752    -6.766    -0.014      5.47
O(0)          0.000e+00
   O2              0.000e+00   0.000e+00   -62.123   -62.123     0.000     30.40

------------------------------Saturation indices-------------------------------

  Phase               SI** log IAP   log K(298 K,   1 atm)

  Aragonite         0.29     -8.04   -8.34  CaCO3
  Calcite           0.40     -8.04   -8.45  CaCO3
  CH4(g)          -28.31    -31.11   -2.80  CH4
  CO2(g)           -6.16     -7.63   -1.47  CO2
  Dolomite          1.00    -16.08  -17.08  CaMg(CO3)2
  H2(g)           -12.02    -15.12   -3.10  H2
  H2O(g)           -1.50     -0.00    1.50  H2O
  O2(g)           -59.23    -62.12   -2.89  O2

**For a gas, SI = log10(fugacity). Fugacity = pressure * phi / 1 atm.
  For ideal gases, phi = 1.

------------------
End of simulation.
------------------

------------------------------------
Reading input data for simulation 6.
------------------------------------

	USE solution 2
	EQUILIBRIUM_PHASES 1
		Dolomite	0.0	0.1 dissolve_only
	REACTION
		HCl	1.0
		.5 moles in 5 steps
	END
-----------------------------------------
Beginning of batch-reaction calculations.
-----------------------------------------

Reaction step 1.

Using solution 2.	Solution after simulation 3.
Using pure phase assemblage 1.	
Using reaction 1.	

Reaction 1.	

	  1.000e-01 moles of the following reaction have been added:

	                 Relative
	Reactant            moles

	HCl                  1.00000

	                 Relative
	Element             moles
	Cl                   1.00000
	H                    1.00000

-------------------------------Phase assemblage--------------------------------

                                                      Moles in assemblage
Phase               SI  log IAP  log K(T, P)   Initial       Final       Delta

Dolomite          0.00   -17.08    -17.08    1.000e-01   7.109e-02  -2.891e-02

-----------------------------Solution composition------------------------------

	Elements           Molality       Moles

	C                 5.804e-02   5.808e-02
	Ca                2.902e-02   2.904e-02
	Cl                9.992e-02   1.000e-01
	Mg                2.902e-02   2.904e-02

----------------------------Description of solution----------------------------

                                       pH  =   5.760      Charge balance
                                       pe  =  12.265      Adjusted to redox equilibrium
      Specific Conductance (µS/cm,  25°C)  = 10845
                          Density (g/cm³)  =   1.00265
                               Volume (L)  =   1.00633
                        Viscosity (mPa s)  =   0.92075
                        Activity of water  =   0.996
                 Ionic strength (mol/kgw)  =   1.707e-01
                       Mass of water (kg)  =   1.001e+00
                 Total alkalinity (eq/kg)  =   1.615e-02
                       Total CO2 (mol/kg)  =   5.804e-02
                         Temperature (°C)  =  25.00
                  Electrical balance (eq)  =  -1.217e-09
 Percent error, 100*(Cat-|An|)/(Cat+|An|)  =  -0.00
                               Iterations  =  17
                                  Total H  = 1.111124e+02
                                  Total O  = 5.568046e+01

----------------------------Distribution of species----------------------------

                                               Log       Log       Log    mole V
   Species          Molality    Activity  Molality  Activity     Gamma   cm³/mol

   H+              2.164e-06   1.739e-06    -5.665    -5.760    -0.095      0.00
   OH-             8.056e-09   5.798e-09    -8.094    -8.237    -0.143     -3.56
   H2O             5.551e+01   9.964e-01     1.744    -0.002     0.000     18.07
C(-4)         0.000e+00
   CH4             0.000e+00   0.000e+00  -121.185  -121.168     0.017     35.46
C(4)          5.804e-02
   CO2             4.184e-02   4.294e-02    -1.378    -1.367     0.011     34.79
   HCO3-           1.443e-02   1.094e-02    -1.841    -1.961    -0.120     25.79
   MgHCO3+         1.705e-03   1.245e-03    -2.768    -2.905    -0.137      5.70
   (CO2)2          2.920e-05   2.997e-05    -4.535    -4.523     0.011     68.75
   CaCO3           4.641e-06   4.827e-06    -5.333    -5.316     0.017    -14.60
   MgCO3           2.631e-06   2.737e-06    -5.580    -5.563     0.017    -17.09
   CO3-2           9.039e-07   2.949e-07    -6.044    -6.530    -0.486     -2.78
   CaHCO3+         1.221e-08   9.343e-09    -7.913    -8.030    -0.116      9.87
Ca            2.902e-02
   Ca+2            2.901e-02   9.742e-03    -1.537    -2.011    -0.474    -17.27
   CaCO3           4.641e-06   4.827e-06    -5.333    -5.316     0.017    -14.60
   CaHCO3+         1.221e-08   9.343e-09    -7.913    -8.030    -0.116      9.87
   CaOH+           1.229e-09   9.261e-10    -8.910    -9.033    -0.123     (0)  
Cl            9.992e-02
   Cl-             9.992e-02   7.268e-02    -1.000    -1.139    -0.138     18.43
   HCl             3.684e-08   4.355e-08    -7.434    -7.361     0.073     20.36
H(0)          1.215e-39
   H2              6.075e-40   6.331e-40   -39.216   -39.199     0.018     14.99
Mg            2.902e-02
   Mg+2            2.731e-02   9.724e-03    -1.564    -2.012    -0.448    -20.97
   MgHCO3+         1.705e-03   1.245e-03    -2.768    -2.905    -0.137      5.70
   MgCO3           2.631e-06   2.737e-06    -5.580    -5.563     0.017    -17.09
   MgOH+           2.617e-08   2.022e-08    -7.582    -7.694    -0.112     (0)  
O(0)          2.067e-14
   O2              1.034e-14   1.075e-14   -13.986   -13.969     0.017     30.40

------------------------------Saturation indices-------------------------------

  Phase               SI** log IAP   log K(298 K,   1 atm)

  Aragonite        -0.21     -8.54   -8.34  CaCO3
  Calcite          -0.09     -8.54   -8.45  CaCO3
  CH4(g)         -118.37   -121.17   -2.80  CH4
  CO2(g)            0.10     -1.37   -1.47  CO2
  Dolomite          0.00    -17.08  -17.08  CaMg(CO3)2
  H2(g)           -36.10    -39.20   -3.10  H2
  H2O(g)           -1.50     -0.00    1.50  H2O
  O2(g)           -11.08    -13.97   -2.89  O2

**For a gas, SI = log10(fugacity). Fugacity = pressure * phi / 1 atm.
  For ideal gases, phi = 1.

Reaction step 2.

Using solution 2.	Solution after simulation 3.
Using pure phase assemblage 1.	
Using reaction 1.	

Reaction 1.	

	  2.000e-01 moles of the following reaction have been added:

	                 Relative
	Reactant            moles

	HCl                  1.00000

	                 Relative
	Element             moles
	Cl                   1.00000
	H                    1.00000

-------------------------------Phase assemblage--------------------------------

                                                      Moles in assemblage
Phase               SI  log IAP  log K(T, P)   Initial       Final       Delta

Dolomite          0.00   -17.08    -17.08    1.000e-01   4.488e-02  -5.512e-02

-----------------------------Solution composition------------------------------

	Elements           Molality       Moles

	C                 1.103e-01   1.105e-01
	Ca                5.517e-02   5.526e-02
	Cl                1.997e-01   2.000e-01
	Mg                5.517e-02   5.526e-02

----------------------------Description of solution----------------------------

                                       pH  =   5.485      Charge balance
                                       pe  =  12.524      Adjusted to redox equilibrium
      Specific Conductance (µS/cm,  25°C)  = 19359
                          Density (g/cm³)  =   1.00753
                               Volume (L)  =   1.00988
                        Viscosity (mPa s)  =   0.94533
                        Activity of water  =   0.993
                 Ionic strength (mol/kgw)  =   3.240e-01
                       Mass of water (kg)  =   1.002e+00
                 Total alkalinity (eq/kg)  =   2.100e-02
                       Total CO2 (mol/kg)  =   1.103e-01
                         Temperature (°C)  =  25.00
                  Electrical balance (eq)  =  -6.831e-10
 Percent error, 100*(Cat-|An|)/(Cat+|An|)  =  -0.00
                               Iterations  =  17
                                  Total H  = 1.112124e+02
                                  Total O  = 5.583777e+01

----------------------------Distribution of species----------------------------

                                               Log       Log       Log    mole V
   Species          Molality    Activity  Molality  Activity     Gamma   cm³/mol

   H+              4.198e-06   3.272e-06    -5.377    -5.485    -0.108      0.00
   OH-             4.601e-09   3.071e-09    -8.337    -8.513    -0.175     -3.25
   H2O             5.551e+01   9.929e-01     1.744    -0.003     0.000     18.07
C(-4)         0.000e+00
   CH4             0.000e+00   0.000e+00  -120.735  -120.703     0.032     35.46
C(4)          1.103e-01
   CO2             8.907e-02   9.357e-02    -1.050    -1.029     0.021     34.79
   HCO3-           1.751e-02   1.263e-02    -1.757    -1.899    -0.142     26.54
   MgHCO3+         3.478e-03   2.373e-03    -2.459    -2.625    -0.166      5.76
   (CO2)2          1.355e-04   1.423e-04    -3.868    -3.847     0.021     68.75
   CaCO3           4.421e-06   4.763e-06    -5.355    -5.322     0.032    -14.60
   MgCO3           2.574e-06   2.773e-06    -5.589    -5.557     0.032    -17.09
   CO3-2           6.847e-07   1.810e-07    -6.164    -6.742    -0.578     -1.98
   CaHCO3+         2.377e-08   1.735e-08    -7.624    -7.761    -0.137      9.91
Ca            5.517e-02
   Ca+2            5.516e-02   1.567e-02    -1.258    -1.805    -0.547    -17.03
   CaCO3           4.421e-06   4.763e-06    -5.355    -5.322     0.032    -14.60
   CaHCO3+         2.377e-08   1.735e-08    -7.624    -7.761    -0.137      9.91
   CaOH+           1.078e-09   7.889e-10    -8.968    -9.103    -0.135     (0)  
Cl            1.997e-01
   Cl-             1.997e-01   1.358e-01    -0.700    -0.867    -0.167     18.57
   HCl             1.114e-07   1.531e-07    -6.953    -6.815     0.138     20.36
H(0)          1.257e-39
   H2              6.287e-40   6.799e-40   -39.202   -39.168     0.034     14.99
Mg            5.517e-02
   Mg+2            5.169e-02   1.606e-02    -1.287    -1.794    -0.508    -20.74
   MgHCO3+         3.478e-03   2.373e-03    -2.459    -2.625    -0.166      5.76
   MgCO3           2.574e-06   2.773e-06    -5.589    -5.557     0.032    -17.09
   MgOH+           2.392e-08   1.769e-08    -7.621    -7.752    -0.131     (0)  
O(0)          1.718e-14
   O2              8.589e-15   9.254e-15   -14.066   -14.034     0.032     30.40

------------------------------Saturation indices-------------------------------

  Phase               SI** log IAP   log K(298 K,   1 atm)

  Aragonite        -0.21     -8.55   -8.34  CaCO3
  Calcite          -0.10     -8.55   -8.45  CaCO3
  CH4(g)         -117.90   -120.70   -2.80  CH4
  CO2(g)            0.44     -1.03   -1.47  CO2
  Dolomite          0.00    -17.08  -17.08  CaMg(CO3)2
  H2(g)           -36.07    -39.17   -3.10  H2
  H2O(g)           -1.51     -0.00    1.50  H2O
  O2(g)           -11.14    -14.03   -2.89  O2

**For a gas, SI = log10(fugacity). Fugacity = pressure * phi / 1 atm.
  For ideal gases, phi = 1.

Reaction step 3.

Using solution 2.	Solution after simulation 3.
Using pure phase assemblage 1.	
Using reaction 1.	

Reaction 1.	

	  3.000e-01 moles of the following reaction have been added:

	                 Relative
	Reactant            moles

	HCl                  1.00000

	                 Relative
	Element             moles
	Cl                   1.00000
	H                    1.00000

-------------------------------Phase assemblage--------------------------------

                                                      Moles in assemblage
Phase               SI  log IAP  log K(T, P)   Initial       Final       Delta

Dolomite          0.00   -17.08    -17.08    1.000e-01   1.896e-02  -8.104e-02

-----------------------------Solution composition------------------------------

	Elements           Molality       Moles

	C                 1.619e-01   1.623e-01
	Ca                8.097e-02   8.117e-02
	Cl                2.993e-01   3.000e-01
	Mg                8.097e-02   8.117e-02

----------------------------Description of solution----------------------------

                                       pH  =   5.320      Charge balance
                                       pe  =  12.891      Adjusted to redox equilibrium
      Specific Conductance (µS/cm,  25°C)  = 27065
                          Density (g/cm³)  =   1.01227
                               Volume (L)  =   1.01347
                        Viscosity (mPa s)  =   0.96911
                        Activity of water  =   0.990
                 Ionic strength (mol/kgw)  =   4.751e-01
                       Mass of water (kg)  =   1.002e+00
                 Total alkalinity (eq/kg)  =   2.463e-02
                       Total CO2 (mol/kg)  =   1.619e-01
                         Temperature (°C)  =  25.00
                  Electrical balance (eq)  =  -1.195e-09
 Percent error, 100*(Cat-|An|)/(Cat+|An|)  =  -0.00
                               Iterations  =  18
                                  Total H  = 1.113124e+02
                                  Total O  = 5.599326e+01

----------------------------Distribution of species----------------------------

                                               Log       Log       Log    mole V
   Species          Molality    Activity  Molality  Activity     Gamma   cm³/mol

   H+              6.254e-06   4.791e-06    -5.204    -5.320    -0.116      0.00
   OH-             3.283e-09   2.090e-09    -8.484    -8.680    -0.196     -2.97
   H2O             5.551e+01   9.895e-01     1.744    -0.005     0.000     18.07
C(-4)         0.000e+00
   CH4             0.000e+00   0.000e+00  -122.168  -122.121     0.048     35.46
C(4)          1.619e-01
   CO2             1.367e-01   1.469e-01    -0.864    -0.833     0.031     34.79
   HCO3-           1.925e-02   1.349e-02    -1.715    -1.870    -0.154     27.21
   MgHCO3+         5.371e-03   3.512e-03    -2.270    -2.454    -0.184      5.79
   (CO2)2          3.264e-04   3.508e-04    -3.486    -3.455     0.031     68.75
   CaCO3           4.224e-06   4.712e-06    -5.374    -5.327     0.048    -14.60
   MgCO3           2.513e-06   2.803e-06    -5.600    -5.552     0.048    -17.09
   CO3-2           5.668e-07   1.321e-07    -6.247    -6.879    -0.633     -1.35
   CaHCO3+         3.542e-08   2.513e-08    -7.451    -7.600    -0.149      9.93
Ca            8.097e-02
   Ca+2            8.097e-02   2.124e-02    -1.092    -1.673    -0.581    -16.87
   CaCO3           4.224e-06   4.712e-06    -5.374    -5.327     0.048    -14.60
   CaHCO3+         3.542e-08   2.513e-08    -7.451    -7.600    -0.149      9.93
   CaOH+           9.944e-10   7.280e-10    -9.002    -9.138    -0.135     (0)  
Cl            2.993e-01
   Cl-             2.993e-01   1.955e-01    -0.524    -0.709    -0.185     18.67
   HCl             2.026e-07   3.227e-07    -6.693    -6.491     0.202     20.36
H(0)          4.779e-40
   H2              2.390e-40   2.680e-40   -39.622   -39.572     0.050     14.99
Mg            8.097e-02
   Mg+2            7.560e-02   2.225e-02    -1.121    -1.653    -0.531    -20.58
   MgHCO3+         5.371e-03   3.512e-03    -2.270    -2.454    -0.184      5.79
   MgCO3           2.513e-06   2.803e-06    -5.600    -5.552     0.048    -17.09
   MgOH+           2.314e-08   1.668e-08    -7.636    -7.778    -0.142     (0)  
O(0)          1.060e-13
   O2              5.301e-14   5.914e-14   -13.276   -13.228     0.048     30.40

------------------------------Saturation indices-------------------------------

  Phase               SI** log IAP   log K(298 K,   1 atm)

  Aragonite        -0.22     -8.55   -8.34  CaCO3
  Calcite          -0.10     -8.55   -8.45  CaCO3
  CH4(g)         -119.32   -122.12   -2.80  CH4
  CO2(g)            0.64     -0.83   -1.47  CO2
  Dolomite          0.00    -17.08  -17.08  CaMg(CO3)2
  H2(g)           -36.47    -39.57   -3.10  H2
  H2O(g)           -1.51     -0.00    1.50  H2O
  O2(g)           -10.34    -13.23   -2.89  O2

**For a gas, SI = log10(fugacity). Fugacity = pressure * phi / 1 atm.
  For ideal gases, phi = 1.

Reaction step 4.

Using solution 2.	Solution after simulation 3.
Using pure phase assemblage 1.	
Using reaction 1.	

Reaction 1.	

	  4.000e-01 moles of the following reaction have been added:

	                 Relative
	Reactant            moles

	HCl                  1.00000

	                 Relative
	Element             moles
	Cl                   1.00000
	H                    1.00000

-------------------------------Phase assemblage--------------------------------

                                                      Moles in assemblage
Phase               SI  log IAP  log K(T, P)   Initial       Final       Delta

Dolomite         -6.16   -23.24    -17.08    1.000e-01           0  -1.000e-01

-----------------------------Solution composition------------------------------

	Elements           Molality       Moles

	C                 1.995e-01   2.003e-01
	Ca                9.977e-02   1.001e-01
	Cl                3.986e-01   4.000e-01
	Mg                9.977e-02   1.001e-01

----------------------------Description of solution----------------------------

                                       pH  =   3.650      Charge balance
                                       pe  =  14.246      Adjusted to redox equilibrium
      Specific Conductance (µS/cm,  25°C)  = 33171
                          Density (g/cm³)  =   1.01548
                               Volume (L)  =   1.01730
                        Viscosity (mPa s)  =   0.98954
                        Activity of water  =   0.986
                 Ionic strength (mol/kgw)  =   5.985e-01
                       Mass of water (kg)  =   1.004e+00
                 Total alkalinity (eq/kg)  =   5.319e-04
                       Total CO2 (mol/kg)  =   1.995e-01
                         Temperature (°C)  =  25.00
                  Electrical balance (eq)  =  -1.216e-09
 Percent error, 100*(Cat-|An|)/(Cat+|An|)  =  -0.00
                               Iterations  =  18
                                  Total H  = 1.114124e+02
                                  Total O  = 5.610702e+01

----------------------------Distribution of species----------------------------

                                               Log       Log       Log    mole V
   Species          Molality    Activity  Molality  Activity     Gamma   cm³/mol

   H+              2.953e-04   2.240e-04    -3.530    -3.650    -0.120      0.00
   OH-             7.209e-11   4.457e-11   -10.142   -10.351    -0.209     -2.76
   H2O             5.551e+01   9.865e-01     1.744    -0.006     0.000     18.07
C(-4)         0.000e+00
   CH4             0.000e+00   0.000e+00  -119.486  -119.426     0.060     35.46
C(4)          1.995e-01
   CO2             1.973e-01   2.161e-01    -0.705    -0.665     0.040     34.79
   (CO2)2          6.933e-04   7.593e-04    -3.159    -3.120     0.040     68.75
   HCO3-           6.142e-04   4.233e-04    -3.212    -3.373    -0.162     27.72
   MgHCO3+         2.239e-04   1.427e-04    -3.650    -3.846    -0.196      5.81
   CaCO3           3.278e-09   3.763e-09    -8.484    -8.424     0.060    -14.60
   MgCO3           2.123e-09   2.436e-09    -8.673    -8.613     0.060    -17.09
   CaHCO3+         1.344e-09   9.380e-10    -8.872    -9.028    -0.156      9.95
   CO3-2           4.100e-10   8.862e-11    -9.387   -10.052    -0.665     -0.92
Ca            9.977e-02
   Ca+2            9.977e-02   2.528e-02    -1.001    -1.597    -0.596    -16.76
   CaCO3           3.278e-09   3.763e-09    -8.484    -8.424     0.060    -14.60
   CaHCO3+         1.344e-09   9.380e-10    -8.872    -9.028    -0.156      9.95
   CaOH+           2.497e-11   1.847e-11   -10.603   -10.733    -0.131     (0)  
Cl            3.986e-01
   Cl-             3.986e-01   2.543e-01    -0.400    -0.595    -0.195     18.75
   HCl             1.092e-05   1.963e-05    -4.962    -4.707     0.255     20.36
H(0)          1.983e-39
   H2              9.917e-40   1.146e-39   -39.004   -38.941     0.063     14.99
Mg            9.977e-02
   Mg+2            9.955e-02   2.881e-02    -1.002    -1.540    -0.539    -20.47
   MgHCO3+         2.239e-04   1.427e-04    -3.650    -3.846    -0.196      5.81
   MgCO3           2.123e-09   2.436e-09    -8.673    -8.613     0.060    -17.09
   MgOH+           6.488e-10   4.606e-10    -9.188    -9.337    -0.149     (0)  
O(0)          5.602e-15
   O2              2.801e-15   3.215e-15   -14.553   -14.493     0.060     30.40

------------------------------Saturation indices-------------------------------

  Phase               SI** log IAP   log K(298 K,   1 atm)

  Aragonite        -3.31    -11.65   -8.34  CaCO3
  Calcite          -3.20    -11.65   -8.45  CaCO3
  CH4(g)         -116.62   -119.43   -2.80  CH4
  CO2(g)            0.80     -0.67   -1.47  CO2
  Dolomite         -6.16    -23.24  -17.08  CaMg(CO3)2
  H2(g)           -35.84    -38.94   -3.10  H2
  H2O(g)           -1.51     -0.01    1.50  H2O
  O2(g)           -11.60    -14.49   -2.89  O2

**For a gas, SI = log10(fugacity). Fugacity = pressure * phi / 1 atm.
  For ideal gases, phi = 1.

Reaction step 5.

Using solution 2.	Solution after simulation 3.
Using pure phase assemblage 1.	
Using reaction 1.	

Reaction 1.	

	  5.000e-01 moles of the following reaction have been added:

	                 Relative
	Reactant            moles

	HCl                  1.00000

	                 Relative
	Element             moles
	Cl                   1.00000
	H                    1.00000

-------------------------------Phase assemblage--------------------------------

                                                      Moles in assemblage
Phase               SI  log IAP  log K(T, P)   Initial       Final       Delta

Dolomite        -16.18   -33.26    -17.08    1.000e-01           0  -1.000e-01

-----------------------------Solution composition------------------------------

	Elements           Molality       Moles

	C                 1.995e-01   2.003e-01
	Ca                9.977e-02   1.001e-01
	Cl                4.982e-01   5.000e-01
	Mg                9.977e-02   1.001e-01

----------------------------Description of solution----------------------------

                                       pH  =   1.144      Charge balance
                                       pe  =  16.798      Adjusted to redox equilibrium
      Specific Conductance (µS/cm,  25°C)  = 53388
                          Density (g/cm³)  =   1.01712
                               Volume (L)  =   1.01925
                        Viscosity (mPa s)  =   0.99165
                        Activity of water  =   0.983
                 Ionic strength (mol/kgw)  =   6.939e-01
                       Mass of water (kg)  =   1.004e+00
                 Total alkalinity (eq/kg)  =  -9.911e-02
                       Total CO2 (mol/kg)  =   1.995e-01
                         Temperature (°C)  =  25.00
                  Electrical balance (eq)  =  -1.217e-09
 Percent error, 100*(Cat-|An|)/(Cat+|An|)  =  -0.00
                               Iterations  =  22
                                  Total H  = 1.115124e+02
                                  Total O  = 5.610702e+01

----------------------------Distribution of species----------------------------

                                               Log       Log       Log    mole V
   Species          Molality    Activity  Molality  Activity     Gamma   cm³/mol

   H+              9.522e-02   7.178e-02    -1.021    -1.144    -0.123      0.00
   OH-             2.285e-13   1.386e-13   -12.641   -12.858    -0.217     -2.60
   H2O             5.551e+01   9.831e-01     1.744    -0.007     0.000     18.07
C(-4)         0.000e+00
   CH4             0.000e+00   0.000e+00  -119.860  -119.791     0.069     35.46
C(4)          1.995e-01
   CO2             1.981e-01   2.202e-01    -0.703    -0.657     0.046     34.79
   (CO2)2          7.091e-04   7.880e-04    -3.149    -3.103     0.046     68.75
   HCO3-           1.966e-06   1.341e-06    -5.706    -5.873    -0.166     28.09
   MgHCO3+         7.209e-07   4.519e-07    -6.142    -6.345    -0.203      5.82
   CaHCO3+         4.237e-12   2.926e-12   -11.373   -11.534    -0.161      9.96
   CaCO3           3.122e-14   3.663e-14   -13.506   -13.436     0.069    -14.60
   MgCO3           2.052e-14   2.408e-14   -13.688   -13.618     0.069    -17.09
   CO3-2           4.251e-15   8.762e-16   -14.372   -15.057    -0.686     -0.61
Ca            9.977e-02
   Ca+2            9.977e-02   2.488e-02    -1.001    -1.604    -0.603    -16.68
   CaHCO3+         4.237e-12   2.926e-12   -11.373   -11.534    -0.161      9.96
   CaOH+           7.553e-14   5.656e-14   -13.122   -13.247    -0.126     (0)  
   CaCO3           3.122e-14   3.663e-14   -13.506   -13.436     0.069    -14.60
Cl            4.982e-01
   Cl-             4.943e-01   3.109e-01    -0.306    -0.507    -0.201     18.80
   HCl             3.895e-03   7.688e-03    -2.409    -2.114     0.295     20.36
H(0)          1.561e-39
   H2              7.807e-40   9.233e-40   -39.107   -39.035     0.073     14.99
Mg            9.977e-02
   Mg+2            9.977e-02   2.880e-02    -1.001    -1.541    -0.540    -20.40
   MgHCO3+         7.209e-07   4.519e-07    -6.142    -6.345    -0.203      5.82
   MgOH+           2.036e-12   1.432e-12   -11.691   -11.844    -0.153     (0)  
   MgCO3           2.052e-14   2.408e-14   -13.688   -13.618     0.069    -17.09
O(0)          8.387e-15
   O2              4.193e-15   4.920e-15   -14.377   -14.308     0.069     30.40

------------------------------Saturation indices-------------------------------

  Phase               SI** log IAP   log K(298 K,   1 atm)

  Aragonite        -8.33    -16.66   -8.34  CaCO3
  Calcite          -8.21    -16.66   -8.45  CaCO3
  CH4(g)         -116.99   -119.79   -2.80  CH4
  CO2(g)            0.81     -0.66   -1.47  CO2
  Dolomite        -16.18    -33.26  -17.08  CaMg(CO3)2
  H2(g)           -35.94    -39.03   -3.10  H2
  H2O(g)           -1.51     -0.01    1.50  H2O
  O2(g)           -11.42    -14.31   -2.89  O2

**For a gas, SI = log10(fugacity). Fugacity = pressure * phi / 1 atm.
  For ideal gases, phi = 1.

------------------
End of simulation.
------------------

------------------------------------
Reading input data for simulation 7.
------------------------------------

	USE solution 3
	EQUILIBRIUM_PHASES 1
		Dolomite	0.0	.00001 dissolve_only
	REACTION
		CaMg(CO3)2	1.0
		.000040  moles in 8 steps
	END
-----------------------------------------
Beginning of batch-reaction calculations.
-----------------------------------------

Reaction step 1.

Using solution 3.	Solution after simulation 4.
Using pure phase assemblage 1.	
Using reaction 1.	

Reaction 1.	

	  5.000e-06 moles of the following reaction have been added:

	                 Relative
	Reactant            moles

	CaMg(CO3)2           1.00000

	                 Relative
	Element             moles
	C                    2.00000
	Ca                   1.00000
	Mg                   1.00000
	O                    6.00000

-------------------------------Phase assemblage--------------------------------

                                                      Moles in assemblage
Phase               SI  log IAP  log K(T, P)   Initial       Final       Delta

Dolomite         -0.44   -17.52    -17.08    1.000e-05           0  -1.000e-05

-----------------------------Solution composition------------------------------

	Elements           Molality       Moles

	C                 1.254e-04   1.254e-04
	Ca                6.270e-05   6.270e-05
	Mg                6.270e-05   6.270e-05

----------------------------Description of solution----------------------------

                                       pH  =   9.910      Charge balance
                                       pe  =   8.454      Adjusted to redox equilibrium
      Specific Conductance (µS/cm,  25°C)  = 35
                          Density (g/cm³)  =   0.99706
                               Volume (L)  =   1.00296
                        Viscosity (mPa s)  =   0.89036
                        Activity of water  =   1.000
                 Ionic strength (mol/kgw)  =   3.939e-04
                       Mass of water (kg)  =   1.000e+00
                 Total alkalinity (eq/kg)  =   2.508e-04
                       Total CO2 (mol/kg)  =   1.254e-04
                         Temperature (°C)  =  25.00
                  Electrical balance (eq)  =  -1.217e-09
 Percent error, 100*(Cat-|An|)/(Cat+|An|)  =  -0.00
                               Iterations  =  13
                                  Total H  = 1.110124e+02
                                  Total O  = 5.550659e+01

----------------------------Distribution of species----------------------------

                                               Log       Log       Log    mole V
   Species          Molality    Activity  Molality  Activity     Gamma   cm³/mol

   OH-             8.415e-05   8.226e-05    -4.075    -4.085    -0.010     -4.12
   H+              1.258e-10   1.230e-10    -9.900    -9.910    -0.010      0.00
   H2O             5.551e+01   1.000e+00     1.744    -0.000     0.000     18.07
C(-4)         0.000e+00
   CH4             0.000e+00   0.000e+00  -130.155  -130.155     0.000     35.46
C(4)          1.254e-04
   HCO3-           8.576e-05   8.385e-05    -4.067    -4.076    -0.010     24.54
   CO3-2           3.497e-05   3.196e-05    -4.456    -4.495    -0.039     -4.73
   CaCO3           2.928e-06   2.929e-06    -5.533    -5.533     0.000    -14.60
   MgCO3           1.654e-06   1.654e-06    -5.781    -5.781     0.000    -17.09
   MgHCO3+         5.445e-08   5.323e-08    -7.264    -7.274    -0.010      5.47
   CO2             2.320e-08   2.320e-08    -7.635    -7.635     0.000     34.79
   CaHCO3+         4.101e-13   4.010e-13   -12.387   -12.397    -0.010      9.66
   (CO2)2          8.749e-18   8.749e-18   -17.058   -17.058     0.000     68.75
Ca            6.270e-05
   Ca+2            5.969e-05   5.455e-05    -4.224    -4.263    -0.039    -18.18
   CaCO3           2.928e-06   2.929e-06    -5.533    -5.533     0.000    -14.60
   CaOH+           7.526e-08   7.357e-08    -7.123    -7.133    -0.010     (0)  
   CaHCO3+         4.101e-13   4.010e-13   -12.387   -12.397    -0.010      9.66
H(0)          2.650e-40
   H2              1.325e-40   1.325e-40   -39.878   -39.878     0.000     14.99
Mg            6.270e-05
   Mg+2            5.935e-05   5.425e-05    -4.227    -4.266    -0.039    -21.86
   MgCO3           1.654e-06   1.654e-06    -5.781    -5.781     0.000    -17.09
   MgOH+           1.637e-06   1.601e-06    -5.786    -5.796    -0.010     (0)  
   MgHCO3+         5.445e-08   5.323e-08    -7.264    -7.274    -0.010      5.47
O(0)          4.942e-13
   O2              2.471e-13   2.471e-13   -12.607   -12.607     0.000     30.40

------------------------------Saturation indices-------------------------------

  Phase               SI** log IAP   log K(298 K,   1 atm)

  Aragonite        -0.42     -8.76   -8.34  CaCO3
  Calcite          -0.31     -8.76   -8.45  CaCO3
  CH4(g)         -127.35   -130.16   -2.80  CH4
  CO2(g)           -6.17     -7.63   -1.47  CO2
  Dolomite         -0.44    -17.52  -17.08  CaMg(CO3)2
  H2(g)           -36.78    -39.88   -3.10  H2
  H2O(g)           -1.50     -0.00    1.50  H2O
  O2(g)            -9.71    -12.61   -2.89  O2

**For a gas, SI = log10(fugacity). Fugacity = pressure * phi / 1 atm.
  For ideal gases, phi = 1.

Reaction step 2.

Using solution 3.	Solution after simulation 4.
Using pure phase assemblage 1.	
Using reaction 1.	

Reaction 1.	

	  1.000e-05 moles of the following reaction have been added:

	                 Relative
	Reactant            moles

	CaMg(CO3)2           1.00000

	                 Relative
	Element             moles
	C                    2.00000
	Ca                   1.00000
	Mg                   1.00000
	O                    6.00000

-------------------------------Phase assemblage--------------------------------

                                                      Moles in assemblage
Phase               SI  log IAP  log K(T, P)   Initial       Final       Delta

Dolomite         -0.28   -17.37    -17.08    1.000e-05           0  -1.000e-05

-----------------------------Solution composition------------------------------

	Elements           Molality       Moles

	C                 1.354e-04   1.354e-04
	Ca                6.770e-05   6.770e-05
	Mg                6.770e-05   6.770e-05

----------------------------Description of solution----------------------------

                                       pH  =   9.933      Charge balance
                                       pe  =   8.035      Adjusted to redox equilibrium
      Specific Conductance (µS/cm,  25°C)  = 38
                          Density (g/cm³)  =   0.99706
                               Volume (L)  =   1.00296
                        Viscosity (mPa s)  =   0.89037
                        Activity of water  =   1.000
                 Ionic strength (mol/kgw)  =   4.249e-04
                       Mass of water (kg)  =   1.000e+00
                 Total alkalinity (eq/kg)  =   2.708e-04
                       Total CO2 (mol/kg)  =   1.354e-04
                         Temperature (°C)  =  25.00
                  Electrical balance (eq)  =  -1.217e-09
 Percent error, 100*(Cat-|An|)/(Cat+|An|)  =  -0.00
                               Iterations  =  12
                                  Total H  = 1.110124e+02
                                  Total O  = 5.550662e+01

----------------------------Distribution of species----------------------------

                                               Log       Log       Log    mole V
   Species          Molality    Activity  Molality  Activity     Gamma   cm³/mol

   OH-             8.888e-05   8.680e-05    -4.051    -4.061    -0.010     -4.12
   H+              1.193e-10   1.166e-10    -9.923    -9.933    -0.010      0.00
   H2O             5.551e+01   1.000e+00     1.744    -0.000     0.000     18.07
C(-4)         0.000e+00
   CH4             0.000e+00   0.000e+00  -126.994  -126.994     0.000     35.46
C(4)          1.354e-04
   HCO3-           9.071e-05   8.861e-05    -4.042    -4.052    -0.010     24.54
   CO3-2           3.913e-05   3.564e-05    -4.408    -4.448    -0.041     -4.72
   CaCO3           3.496e-06   3.496e-06    -5.456    -5.456     0.000    -14.60
   MgCO3           1.977e-06   1.977e-06    -5.704    -5.704     0.000    -17.09
   MgHCO3+         6.171e-08   6.027e-08    -7.210    -7.220    -0.010      5.47
   CO2             2.323e-08   2.323e-08    -7.634    -7.634     0.000     34.79
   CaHCO3+         4.643e-13   4.537e-13   -12.333   -12.343    -0.010      9.66
   (CO2)2          8.774e-18   8.774e-18   -17.057   -17.057     0.000     68.75
Ca            6.770e-05
   Ca+2            6.412e-05   5.839e-05    -4.193    -4.234    -0.041    -18.18
   CaCO3           3.496e-06   3.496e-06    -5.456    -5.456     0.000    -14.60
   CaOH+           8.509e-08   8.311e-08    -7.070    -7.080    -0.010     (0)  
   CaHCO3+         4.643e-13   4.537e-13   -12.333   -12.343    -0.010      9.66
H(0)          1.635e-39
   H2              8.175e-40   8.176e-40   -39.088   -39.087     0.000     14.99
Mg            6.770e-05
   Mg+2            6.381e-05   5.813e-05    -4.195    -4.236    -0.040    -21.86
   MgCO3           1.977e-06   1.977e-06    -5.704    -5.704     0.000    -17.09
   MgOH+           1.852e-06   1.810e-06    -5.732    -5.742    -0.010     (0)  
   MgHCO3+         6.171e-08   6.027e-08    -7.210    -7.220    -0.010      5.47
O(0)          1.298e-14
   O2              6.491e-15   6.492e-15   -14.188   -14.188     0.000     30.40

------------------------------Saturation indices-------------------------------

  Phase               SI** log IAP   log K(298 K,   1 atm)

  Aragonite        -0.35     -8.68   -8.34  CaCO3
  Calcite          -0.23     -8.68   -8.45  CaCO3
  CH4(g)         -124.19   -126.99   -2.80  CH4
  CO2(g)           -6.17     -7.63   -1.47  CO2
  Dolomite         -0.28    -17.37  -17.08  CaMg(CO3)2
  H2(g)           -35.99    -39.09   -3.10  H2
  H2O(g)           -1.50     -0.00    1.50  H2O
  O2(g)           -11.30    -14.19   -2.89  O2

**For a gas, SI = log10(fugacity). Fugacity = pressure * phi / 1 atm.
  For ideal gases, phi = 1.

Reaction step 3.

Using solution 3.	Solution after simulation 4.
Using pure phase assemblage 1.	
Using reaction 1.	

Reaction 1.	

	  1.500e-05 moles of the following reaction have been added:

	                 Relative
	Reactant            moles

	CaMg(CO3)2           1.00000

	                 Relative
	Element             moles
	C                    2.00000
	Ca                   1.00000
	Mg                   1.00000
	O                    6.00000

-------------------------------Phase assemblage--------------------------------

                                                      Moles in assemblage
Phase               SI  log IAP  log K(T, P)   Initial       Final       Delta

Dolomite         -0.14   -17.22    -17.08    1.000e-05           0  -1.000e-05

-----------------------------Solution composition------------------------------

	Elements           Molality       Moles

	C                 1.454e-04   1.454e-04
	Ca                7.270e-05   7.270e-05
	Mg                7.270e-05   7.270e-05

----------------------------Description of solution----------------------------

                                       pH  =   9.955      Charge balance
                                       pe  =   8.074      Adjusted to redox equilibrium
      Specific Conductance (µS/cm,  25°C)  = 40
                          Density (g/cm³)  =   0.99706
                               Volume (L)  =   1.00296
                        Viscosity (mPa s)  =   0.89039
                        Activity of water  =   1.000
                 Ionic strength (mol/kgw)  =   4.558e-04
                       Mass of water (kg)  =   1.000e+00
                 Total alkalinity (eq/kg)  =   2.908e-04
                       Total CO2 (mol/kg)  =   1.454e-04
                         Temperature (°C)  =  25.00
                  Electrical balance (eq)  =  -1.217e-09
 Percent error, 100*(Cat-|An|)/(Cat+|An|)  =  -0.00
                               Iterations  =  13
                                  Total H  = 1.110124e+02
                                  Total O  = 5.550665e+01

----------------------------Distribution of species----------------------------

                                               Log       Log       Log    mole V
   Species          Molality    Activity  Molality  Activity     Gamma   cm³/mol

   OH-             9.343e-05   9.118e-05    -4.029    -4.040    -0.011     -4.12
   H+              1.137e-10   1.110e-10    -9.944    -9.955    -0.010      0.00
   H2O             5.551e+01   1.000e+00     1.744    -0.000     0.000     18.07
C(-4)         0.000e+00
   CH4             0.000e+00   0.000e+00  -127.473  -127.473     0.000     35.46
C(4)          1.454e-04
   HCO3-           9.549e-05   9.321e-05    -4.020    -4.031    -0.010     24.54
   CO3-2           4.337e-05   3.938e-05    -4.363    -4.405    -0.042     -4.72
   CaCO3           4.112e-06   4.113e-06    -5.386    -5.386     0.000    -14.60
   MgCO3           2.328e-06   2.328e-06    -5.633    -5.633     0.000    -17.09
   MgHCO3+         6.924e-08   6.757e-08    -7.160    -7.170    -0.011      5.47
   CO2             2.326e-08   2.326e-08    -7.633    -7.633     0.000     34.79
   CaHCO3+         5.205e-13   5.081e-13   -12.284   -12.294    -0.010      9.66
   (CO2)2          8.798e-18   8.799e-18   -17.056   -17.056     0.000     68.75
Ca            7.270e-05
   Ca+2            6.849e-05   6.218e-05    -4.164    -4.206    -0.042    -18.18
   CaCO3           4.112e-06   4.113e-06    -5.386    -5.386     0.000    -14.60
   CaOH+           9.524e-08   9.295e-08    -7.021    -7.032    -0.011     (0)  
   CaHCO3+         5.205e-13   5.081e-13   -12.284   -12.294    -0.010      9.66
H(0)          1.240e-39
   H2              6.201e-40   6.202e-40   -39.208   -39.207     0.000     14.99
Mg            7.270e-05
   Mg+2            6.822e-05   6.196e-05    -4.166    -4.208    -0.042    -21.86
   MgCO3           2.328e-06   2.328e-06    -5.633    -5.633     0.000    -17.09
   MgOH+           2.076e-06   2.026e-06    -5.683    -5.693    -0.010     (0)  
   MgHCO3+         6.924e-08   6.757e-08    -7.160    -7.170    -0.011      5.47
O(0)          2.256e-14
   O2              1.128e-14   1.128e-14   -13.948   -13.948     0.000     30.40

------------------------------Saturation indices-------------------------------

  Phase               SI** log IAP   log K(298 K,   1 atm)

  Aragonite        -0.28     -8.61   -8.34  CaCO3
  Calcite          -0.16     -8.61   -8.45  CaCO3
  CH4(g)         -124.67   -127.47   -2.80  CH4
  CO2(g)           -6.17     -7.63   -1.47  CO2
  Dolomite         -0.14    -17.22  -17.08  CaMg(CO3)2
  H2(g)           -36.11    -39.21   -3.10  H2
  H2O(g)           -1.50     -0.00    1.50  H2O
  O2(g)           -11.06    -13.95   -2.89  O2

**For a gas, SI = log10(fugacity). Fugacity = pressure * phi / 1 atm.
  For ideal gases, phi = 1.

Reaction step 4.

Using solution 3.	Solution after simulation 4.
Using pure phase assemblage 1.	
Using reaction 1.	

Reaction 1.	

	  2.000e-05 moles of the following reaction have been added:

	                 Relative
	Reactant            moles

	CaMg(CO3)2           1.00000

	                 Relative
	Element             moles
	C                    2.00000
	Ca                   1.00000
	Mg                   1.00000
	O                    6.00000

-------------------------------Phase assemblage--------------------------------

                                                      Moles in assemblage
Phase               SI  log IAP  log K(T, P)   Initial       Final       Delta

Dolomite         -0.01   -17.09    -17.08    1.000e-05           0  -1.000e-05

-----------------------------Solution composition------------------------------

	Elements           Molality       Moles

	C                 1.554e-04   1.554e-04
	Ca                7.770e-05   7.770e-05
	Mg                7.770e-05   7.770e-05

----------------------------Description of solution----------------------------

                                       pH  =   9.974      Charge balance
                                       pe  =   8.258      Adjusted to redox equilibrium
      Specific Conductance (µS/cm,  25°C)  = 43
                          Density (g/cm³)  =   0.99706
                               Volume (L)  =   1.00296
                        Viscosity (mPa s)  =   0.89041
                        Activity of water  =   1.000
                 Ionic strength (mol/kgw)  =   4.864e-04
                       Mass of water (kg)  =   1.000e+00
                 Total alkalinity (eq/kg)  =   3.108e-04
                       Total CO2 (mol/kg)  =   1.554e-04
                         Temperature (°C)  =  25.00
                  Electrical balance (eq)  =  -1.217e-09
 Percent error, 100*(Cat-|An|)/(Cat+|An|)  =  -0.00
                               Iterations  =  13
                                  Total H  = 1.110124e+02
                                  Total O  = 5.550668e+01

----------------------------Distribution of species----------------------------

                                               Log       Log       Log    mole V
   Species          Molality    Activity  Molality  Activity     Gamma   cm³/mol

   OH-             9.783e-05   9.539e-05    -4.010    -4.020    -0.011     -4.12
   H+              1.087e-10   1.061e-10    -9.964    -9.974    -0.011      0.00
   H2O             5.551e+01   1.000e+00     1.744    -0.000     0.000     18.07
C(-4)         0.000e+00
   CH4             0.000e+00   0.000e+00  -129.104  -129.104     0.000     35.46
C(4)          1.554e-04
   HCO3-           1.001e-04   9.766e-05    -3.999    -4.010    -0.011     24.54
   CO3-2           4.769e-05   4.316e-05    -4.322    -4.365    -0.043     -4.72
   CaCO3           4.778e-06   4.778e-06    -5.321    -5.321     0.000    -14.60
   MgCO3           2.707e-06   2.708e-06    -5.567    -5.567     0.000    -17.09
   MgHCO3+         7.703e-08   7.511e-08    -7.113    -7.124    -0.011      5.47
   CO2             2.330e-08   2.330e-08    -7.633    -7.633     0.000     34.79
   CaHCO3+         5.784e-13   5.642e-13   -12.238   -12.249    -0.011      9.66
   (CO2)2          8.823e-18   8.823e-18   -17.054   -17.054     0.000     68.75
Ca            7.770e-05
   Ca+2            7.281e-05   6.590e-05    -4.138    -4.181    -0.043    -18.17
   CaCO3           4.778e-06   4.778e-06    -5.321    -5.321     0.000    -14.60
   CaOH+           1.057e-07   1.031e-07    -6.976    -6.987    -0.011     (0)  
   CaHCO3+         5.784e-13   5.642e-13   -12.238   -12.249    -0.011      9.66
H(0)          4.848e-40
   H2              2.424e-40   2.424e-40   -39.615   -39.615     0.000     14.99
Mg            7.770e-05
   Mg+2            7.261e-05   6.574e-05    -4.139    -4.182    -0.043    -21.86
   MgCO3           2.707e-06   2.708e-06    -5.567    -5.567     0.000    -17.09
   MgOH+           2.306e-06   2.249e-06    -5.637    -5.648    -0.011     (0)  
   MgHCO3+         7.703e-08   7.511e-08    -7.113    -7.124    -0.011      5.47
O(0)          1.476e-13
   O2              7.382e-14   7.382e-14   -13.132   -13.132     0.000     30.40

------------------------------Saturation indices-------------------------------

  Phase               SI** log IAP   log K(298 K,   1 atm)

  Aragonite        -0.21     -8.55   -8.34  CaCO3
  Calcite          -0.10     -8.55   -8.45  CaCO3
  CH4(g)         -126.30   -129.10   -2.80  CH4
  CO2(g)           -6.16     -7.63   -1.47  CO2
  Dolomite         -0.01    -17.09  -17.08  CaMg(CO3)2
  H2(g)           -36.52    -39.62   -3.10  H2
  H2O(g)           -1.50     -0.00    1.50  H2O
  O2(g)           -10.24    -13.13   -2.89  O2

**For a gas, SI = log10(fugacity). Fugacity = pressure * phi / 1 atm.
[...]

	C                 6.365e-04   6.365e-04
	Ca                3.182e-04   3.182e-04
	Mg                3.182e-04   3.182e-04
	Na                2.000e-01   2.000e-01

----------------------------Description of solution----------------------------

                                       pH  =  13.147      Charge balance
                                       pe  =   4.942      Adjusted to redox equilibrium
      Specific Conductance (µS/cm,  25°C)  = 41469
                          Density (g/cm³)  =   1.00597
                               Volume (L)  =   1.00208
                        Viscosity (mPa s)  =   0.92667
                        Activity of water  =   0.993
                 Ionic strength (mol/kgw)  =   2.016e-01
                       Mass of water (kg)  =   1.000e+00
                 Total alkalinity (eq/kg)  =   2.013e-01
                       Total CO2 (mol/kg)  =   6.365e-04
                         Temperature (°C)  =  25.00
                  Electrical balance (eq)  =  -1.217e-09
 Percent error, 100*(Cat-|An|)/(Cat+|An|)  =  -0.00
                               Iterations  =  18
                                  Total H  = 1.112124e+02
                                  Total O  = 5.570813e+01

----------------------------Distribution of species----------------------------

                                               Log       Log       Log    mole V
   Species          Molality    Activity  Molality  Activity     Gamma   cm³/mol

   OH-             1.995e-01   1.409e-01    -0.700    -0.851    -0.151     -3.49
   H+              8.947e-14   7.133e-14   -13.048   -13.147    -0.098      0.00
   H2O             5.551e+01   9.932e-01     1.744    -0.003     0.000     18.07
C(-4)         0.000e+00
   CH4             0.000e+00   0.000e+00  -133.664  -133.644     0.020     35.46
C(4)          6.365e-04
   CO3-2           6.203e-04   1.917e-04    -3.207    -3.717    -0.510     -2.59
   CaCO3           1.500e-05   1.571e-05    -4.824    -4.804     0.020    -14.60
   MgCO3           8.025e-07   8.406e-07    -6.096    -6.075     0.020    -17.09
   HCO3-           3.897e-07   2.916e-07    -6.409    -6.535    -0.126     25.95
   NaHCO3          2.009e-08   2.155e-08    -7.697    -7.667     0.030     17.66
   MgHCO3+         2.184e-11   1.568e-11   -10.661   -10.805    -0.144      5.71
   CO2             4.567e-14   4.709e-14   -13.340   -13.327     0.013     34.79
   CaHCO3+         1.650e-15   1.247e-15   -14.782   -14.904    -0.121      9.88
   (CO2)2          3.496e-29   3.605e-29   -28.456   -28.443     0.013     68.75
Ca            3.182e-04
   Ca+2            1.521e-04   4.879e-05    -3.818    -4.312    -0.494    -17.21
   CaOH+           1.511e-04   1.127e-04    -3.821    -3.948    -0.127     (0)  
   CaCO3           1.500e-05   1.571e-05    -4.824    -4.804     0.020    -14.60
   CaHCO3+         1.650e-15   1.247e-15   -14.782   -14.904    -0.121      9.88
H(0)          8.946e-40
   H2              4.473e-40   4.696e-40   -39.349   -39.328     0.021     14.99
Mg            3.182e-04
   MgOH+           3.040e-04   2.323e-04    -3.517    -3.634    -0.117     (0)  
   Mg+2            1.342e-05   4.594e-06    -4.872    -5.338    -0.465    -20.92
   MgCO3           8.025e-07   8.406e-07    -6.096    -6.075     0.020    -17.09
   MgHCO3+         2.184e-11   1.568e-11   -10.661   -10.805    -0.144      5.71
Na            2.000e-01
   Na+             2.000e-01   1.495e-01    -0.699    -0.825    -0.126     -0.93
   NaHCO3          2.009e-08   2.155e-08    -7.697    -7.667     0.030     17.66
O(0)          3.706e-14
   O2              1.853e-14   1.941e-14   -13.732   -13.712     0.020     30.40

------------------------------Saturation indices-------------------------------

  Phase               SI** log IAP   log K(298 K,   1 atm)

  Aragonite         0.31     -8.03   -8.34  CaCO3
  Calcite           0.42     -8.03   -8.45  CaCO3
  CH4(g)         -130.84   -133.64   -2.80  CH4
  CO2(g)          -11.86    -13.33   -1.47  CO2
  Dolomite          0.00    -17.08  -17.08  CaMg(CO3)2
  H2(g)           -36.23    -39.33   -3.10  H2
  H2O(g)           -1.51     -0.00    1.50  H2O
  O2(g)           -10.82    -13.71   -2.89  O2

**For a gas, SI = log10(fugacity). Fugacity = pressure * phi / 1 atm.
  For ideal gases, phi = 1.

Reaction step 3.

Using solution 3.	Solution after simulation 4.
Using pure phase assemblage 1.	
Using reaction 1.	

Reaction 1.	

	  3.000e-01 moles of the following reaction have been added:

	                 Relative
	Reactant            moles

	NaOH                 1.00000

	                 Relative
	Element             moles
	H                    1.00000
	Na                   1.00000
	O                    1.00000

-------------------------------Phase assemblage--------------------------------

                                                      Moles in assemblage
Phase               SI  log IAP  log K(T, P)   Initial       Final       Delta

Dolomite          0.00   -17.08    -17.08    7.000e-04   3.519e-04  -3.481e-04

-----------------------------Solution composition------------------------------

	Elements           Molality       Moles

	C                 7.915e-04   7.915e-04
	Ca                3.958e-04   3.958e-04
	Mg                3.958e-04   3.958e-04
	Na                3.000e-01   3.000e-01

----------------------------Description of solution----------------------------

                                       pH  =  13.304      Charge balance
                                       pe  =   4.637      Adjusted to redox equilibrium
      Specific Conductance (µS/cm,  25°C)  = 60393
                          Density (g/cm³)  =   1.01032
                               Volume (L)  =   1.00173
                        Viscosity (mPa s)  =   0.94567
                        Activity of water  =   0.990
                 Ionic strength (mol/kgw)  =   3.019e-01
                       Mass of water (kg)  =   1.000e+00
                 Total alkalinity (eq/kg)  =   3.016e-01
                       Total CO2 (mol/kg)  =   7.915e-04
                         Temperature (°C)  =  25.00
                  Electrical balance (eq)  =  -1.216e-09
 Percent error, 100*(Cat-|An|)/(Cat+|An|)  =  -0.00
                               Iterations  =  16
                                  Total H  = 1.113124e+02
                                  Total O  = 5.580859e+01

----------------------------Distribution of species----------------------------

                                               Log       Log       Log    mole V
   Species          Molality    Activity  Molality  Activity     Gamma   cm³/mol

   OH-             2.994e-01   2.016e-01    -0.524    -0.695    -0.172     -3.29
   H+              6.354e-14   4.969e-14   -13.197   -13.304    -0.107      0.00
   H2O             5.551e+01   9.898e-01     1.744    -0.004     0.000     18.07
C(-4)         0.000e+00
   CH4             0.000e+00   0.000e+00  -132.759  -132.729     0.030     35.46
C(4)          7.915e-04
   CO3-2           7.748e-04   2.097e-04    -3.111    -3.678    -0.568     -2.08
   CaCO3           1.567e-05   1.680e-05    -4.805    -4.775     0.030    -14.60
   MgCO3           7.336e-07   7.864e-07    -6.135    -6.104     0.030    -17.09
   HCO3-           3.064e-07   2.222e-07    -6.514    -6.653    -0.140     26.44
   NaHCO3          2.165e-08   2.405e-08    -7.664    -7.619     0.046     17.66
   MgHCO3+         1.486e-11   1.022e-11   -10.828   -10.991    -0.163      5.75
   CO2             2.395e-14   2.508e-14   -13.621   -13.601     0.020     34.79
   CaHCO3+         1.266e-15   9.289e-16   -14.897   -15.032    -0.135      9.90
   (CO2)2          9.764e-30   1.022e-29   -29.010   -28.990     0.020     68.75
Ca            3.958e-04
   CaOH+           2.150e-04   1.577e-04    -3.668    -3.802    -0.135     (0)  
   Ca+2            1.651e-04   4.769e-05    -3.782    -4.322    -0.539    -17.06
   CaCO3           1.567e-05   1.680e-05    -4.805    -4.775     0.030    -14.60
   CaHCO3+         1.266e-15   9.289e-16   -14.897   -15.032    -0.135      9.90
H(0)          1.728e-39
   H2              8.641e-40   9.295e-40   -39.063   -39.032     0.032     14.99
Mg            3.958e-04
   MgOH+           3.825e-04   2.843e-04    -3.417    -3.546    -0.129     (0)  
   Mg+2            1.249e-05   3.931e-06    -4.903    -5.406    -0.502    -20.77
   MgCO3           7.336e-07   7.864e-07    -6.135    -6.104     0.030    -17.09
   MgHCO3+         1.486e-11   1.022e-11   -10.828   -10.991    -0.163      5.75
Na            3.000e-01
   Na+             3.000e-01   2.190e-01    -0.523    -0.660    -0.137     -0.81
   NaHCO3          2.165e-08   2.405e-08    -7.664    -7.619     0.046     17.66
O(0)          9.181e-15
   O2              4.590e-15   4.921e-15   -14.338   -14.308     0.030     30.40

------------------------------Saturation indices-------------------------------

  Phase               SI** log IAP   log K(298 K,   1 atm)

  Aragonite         0.34     -8.00   -8.34  CaCO3
  Calcite           0.45     -8.00   -8.45  CaCO3
  CH4(g)         -129.93   -132.73   -2.80  CH4
  CO2(g)          -12.13    -13.60   -1.47  CO2
  Dolomite          0.00    -17.08  -17.08  CaMg(CO3)2
  H2(g)           -35.93    -39.03   -3.10  H2
  H2O(g)           -1.51     -0.00    1.50  H2O
  O2(g)           -11.42    -14.31   -2.89  O2

**For a gas, SI = log10(fugacity). Fugacity = pressure * phi / 1 atm.
  For ideal gases, phi = 1.

Reaction step 4.

Using solution 3.	Solution after simulation 4.
Using pure phase assemblage 1.	
Using reaction 1.	

Reaction 1.	

	  4.000e-01 moles of the following reaction have been added:

	                 Relative
	Reactant            moles

	NaOH                 1.00000

	                 Relative
	Element             moles
	H                    1.00000
	Na                   1.00000
	O                    1.00000

-------------------------------Phase assemblage--------------------------------

                                                      Moles in assemblage
Phase               SI  log IAP  log K(T, P)   Initial       Final       Delta

Dolomite          0.00   -17.08    -17.08    7.000e-04   2.854e-04  -4.146e-04

-----------------------------Solution composition------------------------------

	Elements           Molality       Moles

	C                 9.247e-04   9.247e-04
	Ca                4.623e-04   4.623e-04
	Mg                4.623e-04   4.623e-04
	Na                4.000e-01   4.000e-01

----------------------------Description of solution----------------------------

                                       pH  =  13.415      Charge balance
                                       pe  =   4.490      Adjusted to redox equilibrium
      Specific Conductance (µS/cm,  25°C)  = 78645
                          Density (g/cm³)  =   1.01463
                               Volume (L)  =   1.00144
                        Viscosity (mPa s)  =   0.96533
                        Activity of water  =   0.986
                 Ionic strength (mol/kgw)  =   4.022e-01
                       Mass of water (kg)  =   1.000e+00
                 Total alkalinity (eq/kg)  =   4.018e-01
                       Total CO2 (mol/kg)  =   9.247e-04
                         Temperature (°C)  =  25.00
                  Electrical balance (eq)  =  -1.217e-09
 Percent error, 100*(Cat-|An|)/(Cat+|An|)  =  -0.00
                               Iterations  =  16
                                  Total H  = 1.114124e+02
                                  Total O  = 5.590899e+01

----------------------------Distribution of species----------------------------

                                               Log       Log       Log    mole V
   Species          Molality    Activity  Molality  Activity     Gamma   cm³/mol

   OH-             3.993e-01   2.595e-01    -0.399    -0.586    -0.187     -3.10
   H+              4.984e-14   3.847e-14   -13.302   -13.415    -0.113      0.00
   H2O             5.551e+01   9.864e-01     1.744    -0.006     0.000     18.07
C(-4)         0.000e+00
   CH4             0.000e+00   0.000e+00  -132.668  -132.628     0.040     35.46
C(4)          9.247e-04
   CO3-2           9.077e-04   2.234e-04    -3.042    -3.651    -0.609     -1.64
   CaCO3           1.604e-05   1.760e-05    -4.795    -4.755     0.040    -14.60
   MgCO3           6.844e-07   7.508e-07    -6.165    -6.124     0.040    -17.09
   HCO3-           2.583e-07   1.832e-07    -6.588    -6.737    -0.149     26.89
   NaHCO3          2.272e-08   2.613e-08    -7.644    -7.583     0.061     17.66
   MgHCO3+         1.134e-11   7.551e-12   -10.946   -11.122    -0.176      5.77
   CO2             1.511e-14   1.607e-14   -13.821   -13.794     0.027     34.79
   CaHCO3+         1.049e-15   7.532e-16   -14.979   -15.123    -0.144      9.92
   (CO2)2          3.947e-30   4.196e-30   -29.404   -29.377     0.027     68.75
Ca            4.623e-04
   CaOH+           2.732e-04   1.995e-04    -3.564    -3.700    -0.136     (0)  
   Ca+2            1.731e-04   4.689e-05    -3.762    -4.329    -0.567    -16.94
   CaCO3           1.604e-05   1.760e-05    -4.795    -4.755     0.040    -14.60
   CaHCO3+         1.049e-15   7.532e-16   -14.979   -15.123    -0.144      9.92
H(0)          1.994e-39
   H2              9.971e-40   1.099e-39   -39.001   -38.959     0.042     14.99
Mg            4.623e-04
   MgOH+           4.499e-04   3.279e-04    -3.347    -3.484    -0.137     (0)  
   Mg+2            1.173e-05   3.522e-06    -4.931    -5.453    -0.523    -20.66
   MgCO3           6.844e-07   7.508e-07    -6.165    -6.124     0.040    -17.09
   MgHCO3+         1.134e-11   7.551e-12   -10.946   -11.122    -0.176      5.77
Na            4.000e-01
   Na+             4.000e-01   2.885e-01    -0.398    -0.540    -0.142     -0.71
   NaHCO3          2.272e-08   2.613e-08    -7.644    -7.583     0.061     17.66
O(0)          6.374e-15
   O2              3.187e-15   3.497e-15   -14.497   -14.456     0.040     30.40

------------------------------Saturation indices-------------------------------

  Phase               SI** log IAP   log K(298 K,   1 atm)

  Aragonite         0.36     -7.98   -8.34  CaCO3
  Calcite           0.47     -7.98   -8.45  CaCO3
  CH4(g)         -129.83   -132.63   -2.80  CH4
  CO2(g)          -12.33    -13.79   -1.47  CO2
  Dolomite          0.00    -17.08  -17.08  CaMg(CO3)2
  H2(g)           -35.86    -38.96   -3.10  H2
  H2O(g)           -1.51     -0.01    1.50  H2O
  O2(g)           -11.56    -14.46   -2.89  O2

**For a gas, SI = log10(fugacity). Fugacity = pressure * phi / 1 atm.
  For ideal gases, phi = 1.

Reaction step 5.

Using solution 3.	Solution after simulation 4.
Using pure phase assemblage 1.	
Using reaction 1.	

Reaction 1.	

	  5.000e-01 moles of the following reaction have been added:

	                 Relative
	Reactant            moles

	NaOH                 1.00000

	                 Relative
	Element             moles
	H                    1.00000
	Na                   1.00000
	O                    1.00000

-------------------------------Phase assemblage--------------------------------

                                                      Moles in assemblage
Phase               SI  log IAP  log K(T, P)   Initial       Final       Delta

Dolomite         -0.00   -17.08    -17.08    7.000e-04   2.264e-04  -4.736e-04

-----------------------------Solution composition------------------------------

	Elements           Molality       Moles

	C                 1.043e-03   1.043e-03
	Ca                5.213e-04   5.213e-04
	Mg                5.213e-04   5.213e-04
	Na                5.000e-01   5.000e-01

----------------------------Description of solution----------------------------

                                       pH  =  13.501      Charge balance
                                       pe  =   4.461      Adjusted to redox equilibrium
      Specific Conductance (µS/cm,  25°C)  = 96362
                          Density (g/cm³)  =   1.01888
                               Volume (L)  =   1.00119
                        Viscosity (mPa s)  =   0.98567
                        Activity of water  =   0.983
                 Ionic strength (mol/kgw)  =   5.024e-01
                       Mass of water (kg)  =   1.000e+00
                 Total alkalinity (eq/kg)  =   5.021e-01
                       Total CO2 (mol/kg)  =   1.043e-03
                         Temperature (°C)  =  25.00
                  Electrical balance (eq)  =  -1.217e-09
 Percent error, 100*(Cat-|An|)/(Cat+|An|)  =  -0.00
                               Iterations  =  17
                                  Total H  = 1.115124e+02
                                  Total O  = 5.600934e+01

----------------------------Distribution of species----------------------------

                                               Log       Log       Log    mole V
   Species          Molality    Activity  Molality  Activity     Gamma   cm³/mol

   OH-             4.992e-01   3.155e-01    -0.302    -0.501    -0.199     -2.92
   H+              4.126e-14   3.153e-14   -13.384   -13.501    -0.117      0.00
   H2O             5.551e+01   9.830e-01     1.744    -0.007     0.000     18.07
C(-4)         0.000e+00
   CH4             0.000e+00   0.000e+00  -133.286  -133.236     0.050     35.46
C(4)          1.043e-03
   CO3-2           1.025e-03   2.346e-04    -2.989    -3.630    -0.641     -1.25
   CaCO3           1.626e-05   1.825e-05    -4.789    -4.739     0.050    -14.60
   MgCO3           6.446e-07   7.237e-07    -6.191    -6.140     0.050    -17.09
   HCO3-           2.260e-07   1.577e-07    -6.646    -6.802    -0.156     27.32
   NaHCO3          2.348e-08   2.797e-08    -7.629    -7.553     0.076     17.66
   MgHCO3+         9.181e-12   5.966e-12   -11.037   -11.224    -0.187      5.79
   CO2             1.054e-14   1.138e-14   -13.977   -13.944     0.033     34.79
   CaHCO3+         9.065e-16   6.405e-16   -15.043   -15.193    -0.151      9.94
   (CO2)2          1.949e-30   2.104e-30   -29.710   -29.677     0.033     68.75
Ca            5.213e-04
   CaOH+           3.268e-04   2.396e-04    -3.486    -3.620    -0.135     (0)  
   Ca+2            1.783e-04   4.632e-05    -3.749    -4.334    -0.585    -16.84
   CaCO3           1.626e-05   1.825e-05    -4.789    -4.739     0.050    -14.60
   CaHCO3+         9.065e-16   6.405e-16   -15.043   -15.193    -0.151      9.94
H(0)          1.493e-39
   H2              7.465e-40   8.429e-40   -39.127   -39.074     0.053     14.99
Mg            5.213e-04
   MgOH+           5.096e-04   3.659e-04    -3.293    -3.437    -0.144     (0)  
   Mg+2            1.105e-05   3.233e-06    -4.957    -5.490    -0.534    -20.56
   MgCO3           6.446e-07   7.237e-07    -6.191    -6.140     0.050    -17.09
   MgHCO3+         9.181e-12   5.966e-12   -11.037   -11.224    -0.187      5.79
Na            5.000e-01
   Na+             5.000e-01   3.587e-01    -0.301    -0.445    -0.144     -0.63
   NaHCO3          2.348e-08   2.797e-08    -7.629    -7.553     0.076     17.66
O(0)          1.051e-14
   O2              5.257e-15   5.902e-15   -14.279   -14.229     0.050     30.40

------------------------------Saturation indices-------------------------------

  Phase               SI** log IAP   log K(298 K,   1 atm)

  Aragonite         0.37     -7.96   -8.34  CaCO3
  Calcite           0.48     -7.96   -8.45  CaCO3
  CH4(g)         -130.43   -133.24   -2.80  CH4
  CO2(g)          -12.48    -13.94   -1.47  CO2
  Dolomite         -0.00    -17.08  -17.08  CaMg(CO3)2
  H2(g)           -35.97    -39.07   -3.10  H2
  H2O(g)           -1.51     -0.01    1.50  H2O
  O2(g)           -11.34    -14.23   -2.89  O2

**For a gas, SI = log10(fugacity). Fugacity = pressure * phi / 1 atm.
  For ideal gases, phi = 1.

------------------
End of simulation.
------------------

------------------------------------
Reading input data for simulation 9.
------------------------------------

