WARNING: Database file from DATABASE keyword is used; command line argument ignored.
   Input file: donly
  Output file: donly.out
Database file: ../database/phreeqc.dat

------------------
Reading data base.
------------------

	SOLUTION_MASTER_SPECIES
	SOLUTION_SPECIES
	PHASES
	GAS_BINARY_PARAMETERS
	EXCHANGE_MASTER_SPECIES
	EXCHANGE_SPECIES
	SURFACE_MASTER_SPECIES
	SURFACE_SPECIES
	MEAN_GAMMAS
	RATES
	END
------------------------------------
Reading input data for simulation 1.
------------------------------------

	DATABASE ../database/phreeqc.dat
	SELECTED_OUTPUT 101
	    file                 donly_101.sel
	USER_PUNCH 101
	    headings Mu SC
	    start
	10 PUNCH STR_F$(MU, 20, 12)
	20 PUNCH STR_F$(SC, 20, 10)
	    end
	SOLUTION_SPREAD
	    units    mg/l
	 Number	 S(6)	 Alkalinity	 N(5)	   Cl	   Ca	   Mg	   Na	    K	   pH
	      	     	    as HCO3	     	     	     	     	     	     	     
	      0	  .03	       3038	  .05	 28.9	 50.5	 37.5	 1040	 47.4	 8.37
	   1-100	  380	        527	  .33	   15	 53.6	 23.8	  300	 17.5	 7.51
	END
-------------------------------------------
Beginning of initial solution calculations.
-------------------------------------------

Initial solution 0.	

-----------------------------Solution composition------------------------------

	Elements           Molality       Moles

	Alkalinity        5.000e-02   5.000e-02
	Ca                1.265e-03   1.265e-03
	Cl                8.186e-04   8.186e-04
	K                 1.217e-03   1.217e-03
	Mg                1.549e-03   1.549e-03
	N(5)              3.585e-06   3.585e-06
	Na                4.543e-02   4.543e-02
	S(6)              3.136e-07   3.136e-07

----------------------------Description of solution----------------------------

                                       pH  =   8.370    
                                       pe  =   4.000    
      Specific Conductance (µS/cm,  25°C)  = 4103
                          Density (g/cm³)  =   1.00012
                               Volume (L)  =   1.00407
                        Viscosity (mPa s)  =   0.90119
                        Activity of water  =   0.998
                 Ionic strength (mol/kgw)  =   5.247e-02
                       Mass of water (kg)  =   1.000e+00
                    Total carbon (mol/kg)  =   4.895e-02
                       Total CO2 (mol/kg)  =   4.895e-02
                         Temperature (°C)  =  25.00
                  Electrical balance (eq)  =   1.454e-03
 Percent error, 100*(Cat-|An|)/(Cat+|An|)  =   1.47
                               Iterations  =   6
                                  Total H  = 1.110596e+02
                                  Total O  = 5.565271e+01

----------------------------Distribution of species----------------------------

                                               Log       Log       Log    mole V
   Species          Molality    Activity  Molality  Activity     Gamma   cm³/mol

   OH-             2.931e-06   2.369e-06    -5.533    -5.625    -0.092     -3.87
   H+              5.008e-09   4.266e-09    -8.300    -8.370    -0.070      0.00
   H2O             5.551e+01   9.983e-01     1.744    -0.001     0.000     18.07
C(4)          4.895e-02
   HCO3-           4.619e-02   3.818e-02    -1.335    -1.418    -0.083     25.07
   CO3-2           9.022e-04   4.198e-04    -3.045    -3.377    -0.332     -3.71
   NaHCO3          6.817e-04   6.943e-04    -3.166    -3.158     0.008     17.66
   CO2             3.639e-04   3.668e-04    -3.439    -3.436     0.003     34.79
   CaCO3           3.105e-04   3.143e-04    -3.508    -3.503     0.005    -14.60
   MgHCO3+         2.803e-04   2.280e-04    -3.552    -3.642    -0.090      5.61
   MgCO3           2.019e-04   2.044e-04    -3.695    -3.690     0.005    -17.09
   KHCO3           1.639e-05   1.659e-05    -4.786    -4.780     0.005     21.42
   (CO2)2          2.170e-09   2.188e-09    -8.664    -8.660     0.003     68.75
   CaHCO3+         1.796e-09   1.492e-09    -8.746    -8.826    -0.080      9.79
Ca            1.265e-03
   Ca+2            9.548e-04   4.457e-04    -3.020    -3.351    -0.331    -17.61
   CaCO3           3.105e-04   3.143e-04    -3.508    -3.503     0.005    -14.60
   CaOH+           2.115e-08   1.731e-08    -7.675    -7.762    -0.087     (0)  
   CaSO4           6.924e-09   6.962e-09    -8.160    -8.157     0.002      7.22
   CaHCO3+         1.796e-09   1.492e-09    -8.746    -8.826    -0.080      9.79
   CaHSO4+         3.041e-16   2.489e-16   -15.517   -15.604    -0.087     (0)  
Cl            8.186e-04
   Cl-             8.186e-04   6.641e-04    -3.087    -3.178    -0.091     18.26
   HCl             9.270e-13   9.759e-13   -12.033   -12.011     0.022     20.36
H(0)          2.544e-28
   H2              1.272e-28   1.288e-28   -27.896   -27.890     0.006     14.99
K             1.217e-03
   K+              1.201e-03   9.724e-04    -2.920    -3.012    -0.092      9.17
   KHCO3           1.639e-05   1.659e-05    -4.786    -4.780     0.005     21.42
   KSO4-           1.961e-09   1.657e-09    -8.708    -8.781    -0.073     24.01
Mg            1.549e-03
   Mg+2            1.066e-03   5.103e-04    -2.972    -3.292    -0.320    -21.30
   MgHCO3+         2.803e-04   2.280e-04    -3.552    -3.642    -0.090      5.61
   MgCO3           2.019e-04   2.044e-04    -3.695    -3.690     0.005    -17.09
   MgOH+           5.194e-07   4.336e-07    -6.284    -6.363    -0.078     (0)  
   MgSO4           1.460e-08   1.496e-08    -7.836    -7.825     0.010     -0.40
   Mg(SO4)2-2      1.110e-14   5.519e-15   -13.955   -14.258    -0.304     41.57
N(5)          3.585e-06
   NO3-            3.585e-06   2.879e-06    -5.446    -5.541    -0.095     29.68
Na            4.543e-02
   Na+             4.475e-02   3.679e-02    -1.349    -1.434    -0.085     -1.20
   NaHCO3          6.817e-04   6.943e-04    -3.166    -3.158     0.008     17.66
   NaSO4-          4.420e-08   3.619e-08    -7.355    -7.441    -0.087     17.78
   Na2SO4          6.422e-13   6.491e-13   -12.192   -12.188     0.005     47.96
O(0)          5.150e-37
   O2              2.575e-37   2.606e-37   -36.589   -36.584     0.005     30.40
S(6)          3.136e-07
   SO4-2           2.459e-07   1.120e-07    -6.609    -6.951    -0.342     14.95
   NaSO4-          4.420e-08   3.619e-08    -7.355    -7.441    -0.087     17.78
   MgSO4           1.460e-08   1.496e-08    -7.836    -7.825     0.010     -0.40
   CaSO4           6.924e-09   6.962e-09    -8.160    -8.157     0.002      7.22
   KSO4-           1.961e-09   1.657e-09    -8.708    -8.781    -0.073     24.01
   Na2SO4          6.422e-13   6.491e-13   -12.192   -12.188     0.005     47.96
   HSO4-           5.675e-14   4.644e-14   -13.246   -13.333    -0.087     40.46
   Mg(SO4)2-2      1.110e-14   5.519e-15   -13.955   -14.258    -0.304     41.57
   CaHSO4+         3.041e-16   2.489e-16   -15.517   -15.604    -0.087     (0)  

------------------------------Saturation indices-------------------------------

  Phase               SI** log IAP   log K(298 K,   1 atm)

  Anhydrite        -5.99    -10.30   -4.31  CaSO4
  Aragonite         1.61     -6.73   -8.34  CaCO3
  Arcanite        -11.10    -12.98   -1.88  K2SO4
  Calcite           1.72     -6.73   -8.45  CaCO3
  CO2(g)           -1.97     -3.44   -1.47  CO2
  Dolomite          3.69    -13.40  -17.08  CaMg(CO3)2
  Epsomite         -8.51    -10.25   -1.74  MgSO4:7H2O
  Gypsum           -5.75    -10.30   -4.55  CaSO4:2H2O
  H2(g)           -24.79    -27.89   -3.10  H2
  H2O(g)           -1.50     -0.00    1.50  H2O
  Halite           -6.18     -4.61    1.57  NaCl
  Hexahydrite      -8.68    -10.25   -1.57  MgSO4:6H2O
  Kieserite        -9.08    -10.24   -1.16  MgSO4:H2O
  Mirabilite       -9.12     -9.83   -0.71  Na2SO4:10H2O
  O2(g)           -33.69    -36.58   -2.89  O2
  Sylvite          -7.09     -6.19    0.90  KCl
  Thenardite      -10.47     -9.82    0.65  Na2SO4

**For a gas, SI = log10(fugacity). Fugacity = pressure * phi / 1 atm.
  For ideal gases, phi = 1.

Initial solution 1.	

-----------------------------Solution composition------------------------------

	Elements           Molality       Moles

	Alkalinity        8.648e-03   8.648e-03
	Ca                1.339e-03   1.339e-03
	Cl                4.237e-04   4.237e-04
	K                 4.481e-04   4.481e-04
	Mg                9.802e-04   9.802e-04
	N(5)              2.359e-05   2.359e-05
	Na                1.307e-02   1.307e-02
	S(6)              3.961e-03   3.961e-03

----------------------------Description of solution----------------------------

                                       pH  =   7.510    
                                       pe  =   4.000    
      Specific Conductance (µS/cm,  25°C)  = 1733
                          Density (g/cm³)  =   0.99814
                               Volume (L)  =   1.00321
                        Viscosity (mPa s)  =   0.89475
                        Activity of water  =   1.000
                 Ionic strength (mol/kgw)  =   2.170e-02
                       Mass of water (kg)  =   1.000e+00
                    Total carbon (mol/kg)  =   9.124e-03
                       Total CO2 (mol/kg)  =   9.124e-03
                         Temperature (°C)  =  25.00
                  Electrical balance (eq)  =   1.136e-03
 Percent error, 100*(Cat-|An|)/(Cat+|An|)  =   3.45
                               Iterations  =   8 (14 overall)
                                  Total H  = 1.110210e+02
                                  Total O  = 5.554899e+01

----------------------------Distribution of species----------------------------

                                               Log       Log       Log    mole V
   Species          Molality    Activity  Molality  Activity     Gamma   cm³/mol

   OH-             3.796e-07   3.274e-07    -6.421    -6.485    -0.064     -3.98
   H+              3.486e-08   3.090e-08    -7.458    -7.510    -0.052      0.00
   H2O             5.551e+01   9.995e-01     1.744    -0.000     0.000     18.07
C(4)          9.124e-03
   HCO3-           8.491e-03   7.405e-03    -2.071    -2.130    -0.059     24.82
   CO2             5.131e-04   5.148e-04    -3.290    -3.288     0.001     34.79
   MgHCO3+         4.229e-05   3.658e-05    -4.374    -4.437    -0.063      5.56
   NaHCO3          4.044e-05   4.075e-05    -4.393    -4.390     0.003     17.66
   CO3-2           1.945e-05   1.124e-05    -4.711    -4.949    -0.238     -4.12
   CaCO3           1.248e-05   1.254e-05    -4.904    -4.902     0.002    -14.60
   MgCO3           4.505e-06   4.528e-06    -5.346    -5.344     0.002    -17.09
   KHCO3           1.234e-06   1.241e-06    -5.909    -5.906     0.002     21.42
   (CO2)2          4.294e-09   4.308e-09    -8.367    -8.366     0.001     68.75
   CaHCO3+         4.931e-10   4.312e-10    -9.307    -9.365    -0.058      9.75
Ca            1.339e-03
   Ca+2            1.150e-03   6.642e-04    -2.939    -3.178    -0.238    -17.80
   CaSO4           1.766e-04   1.770e-04    -3.753    -3.752     0.001      7.22
   CaCO3           1.248e-05   1.254e-05    -4.904    -4.902     0.002    -14.60
   CaOH+           4.114e-09   3.565e-09    -8.386    -8.448    -0.062     (0)  
   CaHCO3+         4.931e-10   4.312e-10    -9.307    -9.365    -0.058      9.75
   CaHSO4+         5.290e-11   4.585e-11   -10.277   -10.339    -0.062     (0)  
Cl            4.237e-04
   Cl-             4.237e-04   3.660e-04    -3.373    -3.437    -0.064     18.18
   HCl             3.814e-12   3.896e-12   -11.419   -11.409     0.009     20.36
H(0)          1.345e-26
   H2              6.725e-27   6.761e-27   -26.172   -26.170     0.002     14.99
K             4.481e-04
   K+              4.345e-04   3.750e-04    -3.362    -3.426    -0.064      9.11
   KSO4-           1.239e-05   1.090e-05    -4.907    -4.962    -0.055     21.99
   KHCO3           1.234e-06   1.241e-06    -5.909    -5.906     0.002     21.42
Mg            9.802e-04
   Mg+2            7.220e-04   4.222e-04    -3.141    -3.374    -0.233    -21.49
   MgSO4           2.092e-04   2.113e-04    -3.680    -3.675     0.004     -0.40
   MgHCO3+         4.229e-05   3.658e-05    -4.374    -4.437    -0.063      5.56
   MgCO3           4.505e-06   4.528e-06    -5.346    -5.344     0.002    -17.09
   Mg(SO4)2-2      2.224e-06   1.330e-06    -5.653    -5.876    -0.223     39.54
   MgOH+           5.655e-08   4.958e-08    -7.248    -7.305    -0.057     (0)  
N(5)          2.359e-05
   NO3-            2.359e-05   2.028e-05    -4.627    -4.693    -0.066     29.60
Na            1.307e-02
   Na+             1.281e-02   1.113e-02    -1.892    -1.953    -0.061     -1.31
   NaSO4-          2.155e-04   1.869e-04    -3.666    -3.728    -0.062     17.27
   NaHCO3          4.044e-05   4.075e-05    -4.393    -4.390     0.003     17.66
   Na2SO4          1.010e-09   1.014e-09    -8.996    -8.994     0.002     47.96
O(0)          0.000e+00
   O2              0.000e+00   0.000e+00   -40.025   -40.023     0.002     30.40
S(6)          3.961e-03
   SO4-2           3.343e-03   1.911e-03    -2.476    -2.719    -0.243     14.78
   NaSO4-          2.155e-04   1.869e-04    -3.666    -3.728    -0.062     17.27
   MgSO4           2.092e-04   2.113e-04    -3.680    -3.675     0.004     -0.40
   CaSO4           1.766e-04   1.770e-04    -3.753    -3.752     0.001      7.22
   KSO4-           1.239e-05   1.090e-05    -4.907    -4.962    -0.055     21.99
   Mg(SO4)2-2      2.224e-06   1.330e-06    -5.653    -5.876    -0.223     39.54
   HSO4-           6.625e-09   5.742e-09    -8.179    -8.241    -0.062     40.38
   Na2SO4          1.010e-09   1.014e-09    -8.996    -8.994     0.002     47.96
   CaHSO4+         5.290e-11   4.585e-11   -10.277   -10.339    -0.062     (0)  

------------------------------Saturation indices-------------------------------

  Phase               SI** log IAP   log K(298 K,   1 atm)

  Anhydrite        -1.58     -5.90   -4.31  CaSO4
  Aragonite         0.21     -8.13   -8.34  CaCO3
  Arcanite         -7.69     -9.57   -1.88  K2SO4
  Calcite           0.32     -8.13   -8.45  CaCO3
  CO2(g)           -1.82     -3.29   -1.47  CO2
  Dolomite          0.63    -16.45  -17.08  CaMg(CO3)2
  Epsomite         -4.36     -6.09   -1.74  MgSO4:7H2O
  Gypsum           -1.35     -5.90   -4.55  CaSO4:2H2O
  H2(g)           -23.07    -26.17   -3.10  H2
  H2O(g)           -1.50     -0.00    1.50  H2O
  Halite           -6.96     -5.39    1.57  NaCl
  Hexahydrite      -4.53     -6.09   -1.57  MgSO4:6H2O
  Kieserite        -4.93     -6.09   -1.16  MgSO4:H2O
  Mirabilite       -5.92     -6.63   -0.71  Na2SO4:10H2O
  O2(g)           -37.13    -40.02   -2.89  O2
  Sylvite          -7.76     -6.86    0.90  KCl
  Thenardite       -7.28     -6.63    0.65  Na2SO4

**For a gas, SI = log10(fugacity). Fugacity = pressure * phi / 1 atm.
  For ideal gases, phi = 1.

------------------
End of simulation.
------------------

------------------------------------
Reading input data for simulation 2.
------------------------------------

	EXCHANGE 1-100
	 	X  1.5
		equilibrate 1
	END
-------------------------------------------------------
Beginning of initial exchange-composition calculations.
-------------------------------------------------------

Exchange 1.	

X                1.500e+00 mol

	                               Equiv-    Equivalent      Log 
	Species             Moles      alents      Fraction     Gamma

	CaX2              4.629e-01   9.259e-01   6.172e-01    -0.238
	MgX2              1.834e-01   3.668e-01   2.445e-01    -0.233
	NaX               1.772e-01   1.772e-01   1.182e-01    -0.061
	KX                3.013e-02   3.013e-02   2.009e-02    -0.064

------------------
End of simulation.
------------------

------------------------------------
Reading input data for simulation 3.
------------------------------------

	EQUILIBRIUM_PHASES 1-100
		Calcite 0 1
		Dolomite 0 1  dissolve
		Gypsum 0 1
	SOLUTION 1-4
		units mmol/kgw
		Na 100
		Cl 100	charge
	END
-------------------------------------------
Beginning of initial solution calculations.
-------------------------------------------

Initial solution 1.	

-----------------------------Solution composition------------------------------

	Elements           Molality       Moles

	Cl                1.000e-01   1.000e-01  Charge balance
	Na                1.000e-01   1.000e-01

----------------------------Description of solution----------------------------

                                       pH  =   7.000    
                                       pe  =   4.000    
      Specific Conductance (µS/cm,  25°C)  = 10609
                          Density (g/cm³)  =   1.00115
                               Volume (L)  =   1.00469
                        Viscosity (mPa s)  =   0.89854
                        Activity of water  =   0.997
                 Ionic strength (mol/kgw)  =   1.000e-01
                       Mass of water (kg)  =   1.000e+00
                 Total alkalinity (eq/kg)  =   8.896e-09
                         Temperature (°C)  =  25.00
                  Electrical balance (eq)  =  -1.252e-15
 Percent error, 100*(Cat-|An|)/(Cat+|An|)  =  -0.00
                               Iterations  =   9
                                  Total H  = 1.110124e+02
                                  Total O  = 5.550622e+01

----------------------------Distribution of species----------------------------

                                               Log       Log       Log    mole V
   Species          Molality    Activity  Molality  Activity     Gamma   cm³/mol

   OH-             1.324e-07   1.009e-07    -6.878    -6.996    -0.118     -3.73
   H+              1.212e-07   1.000e-07    -6.917    -7.000    -0.083      0.00
   H2O             5.551e+01   9.966e-01     1.744    -0.001     0.000     18.07
Cl            1.000e-01
   Cl-             1.000e-01   7.666e-02    -1.000    -1.115    -0.115     18.34
   HCl             2.394e-09   2.641e-09    -8.621    -8.578     0.043     20.36
H(0)          1.382e-25
   H2              6.910e-26   7.079e-26   -25.161   -25.150     0.011     14.99
Na            1.000e-01
   Na+             1.000e-01   7.851e-02    -1.000    -1.105    -0.105     -1.09
O(0)          0.000e+00
   O2              0.000e+00   0.000e+00   -42.076   -42.066     0.010     30.40

------------------------------Saturation indices-------------------------------

  Phase               SI** log IAP   log K(298 K,   1 atm)

  H2(g)           -22.05    -25.15   -3.10  H2
  H2O(g)           -1.50     -0.00    1.50  H2O
  Halite           -3.79     -2.22    1.57  NaCl
  O2(g)           -39.17    -42.07   -2.89  O2

**For a gas, SI = log10(fugacity). Fugacity = pressure * phi / 1 atm.
  For ideal gases, phi = 1.

-----------------------------------------
Beginning of batch-reaction calculations.
-----------------------------------------

Reaction step 1.

Using solution 1.	
Using pure phase assemblage 1.	

-------------------------------Phase assemblage--------------------------------

                                                      Moles in assemblage
Phase               SI  log IAP  log K(T, P)   Initial       Final       Delta

Calcite           0.00    -8.45     -8.45    1.000e+00   1.028e+00   2.784e-02
Dolomite          0.00   -17.08    -17.08    1.000e+00   9.861e-01  -1.394e-02
Gypsum            0.00    -4.55     -4.55    1.000e+00   9.670e-01  -3.297e-02

-----------------------------Solution composition------------------------------

	Elements           Molality       Moles

	C                 3.579e-05   3.584e-05
	Ca                1.904e-02   1.906e-02
	Cl                9.988e-02   1.000e-01
	Mg                1.392e-02   1.394e-02
	Na                9.988e-02   1.000e-01
	S                 3.293e-02   3.297e-02

----------------------------Description of solution----------------------------

                                       pH  =   8.928      Charge balance
                                       pe  =  -3.301      Adjusted to redox equilibrium
      Specific Conductance (µS/cm,  25°C)  = 14684
                          Density (g/cm³)  =   1.00539
                               Volume (L)  =   1.00589
                        Viscosity (mPa s)  =   0.91267
                        Activity of water  =   0.996
                 Ionic strength (mol/kgw)  =   1.876e-01
                       Mass of water (kg)  =   1.001e+00
                 Total alkalinity (eq/kg)  =   7.160e-05
                       Total CO2 (mol/kg)  =   3.579e-05
                         Temperature (°C)  =  25.00
                  Electrical balance (eq)  =  -3.851e-15
 Percent error, 100*(Cat-|An|)/(Cat+|An|)  =  -0.00
                               Iterations  =  19
                                  Total H  = 1.111443e+02
                                  Total O  = 5.570412e+01

----------------------------Distribution of species----------------------------

                                               Log       Log       Log    mole V
   Species          Molality    Activity  Molality  Activity     Gamma   cm³/mol

   OH-             1.199e-05   8.541e-06    -4.921    -5.068    -0.147     -3.53
   H+              1.475e-09   1.180e-09    -8.831    -8.928    -0.097      0.00
   H2O             5.551e+01   9.957e-01     1.744    -0.002     0.000     18.07
C(-4)         1.108e-28
   CH4             1.108e-28   1.157e-28   -27.956   -27.937     0.019     35.46
C(4)          3.579e-05
   HCO3-           2.408e-05   1.812e-05    -4.618    -4.742    -0.123     25.88
   CaCO3           5.736e-06   5.989e-06    -5.241    -5.223     0.019    -14.60
   CO3-2           2.276e-06   7.203e-07    -5.643    -6.142    -0.500     -2.68
   MgCO3           2.113e-06   2.206e-06    -5.675    -5.656     0.019    -17.09
   MgHCO3+         9.410e-07   6.805e-07    -6.026    -6.167    -0.141      5.71
   NaHCO3          5.989e-07   6.393e-07    -6.223    -6.194     0.028     17.66
   CO2             4.693e-08   4.828e-08    -7.329    -7.316     0.012     34.79
   CaHCO3+         1.035e-11   7.864e-12   -10.985   -11.104    -0.119      9.87
   (CO2)2          3.684e-17   3.790e-17   -16.434   -16.421     0.012     68.75
Ca            1.904e-02
   Ca+2            1.513e-02   4.949e-03    -1.820    -2.305    -0.485    -17.23
   CaSO4           3.901e-03   3.977e-03    -2.409    -2.400     0.008      7.22
   CaCO3           5.736e-06   5.989e-06    -5.241    -5.223     0.019    -14.60
   CaOH+           9.253e-07   6.932e-07    -6.034    -6.159    -0.125     (0)  
   CaHSO4+         5.249e-11   3.932e-11   -10.280   -10.405    -0.125     (0)  
   CaHCO3+         1.035e-11   7.864e-12   -10.985   -11.104    -0.119      9.87
Cl            9.988e-02
   Cl-             9.988e-02   7.195e-02    -1.001    -1.143    -0.142     18.45
   HCl             2.433e-11   2.924e-11   -10.614   -10.534     0.080     20.36
H(0)          7.545e-15
   H2              3.773e-15   3.948e-15   -14.423   -14.404     0.020     14.99
Mg            1.392e-02
   Mg+2            9.217e-03   3.209e-03    -2.035    -2.494    -0.458    -20.94
   MgSO4           4.440e-03   4.840e-03    -2.353    -2.315     0.038     -0.40
   Mg(SO4)2-2      2.494e-04   9.184e-05    -3.603    -4.037    -0.434     44.90
   MgOH+           1.281e-05   9.833e-06    -4.893    -5.007    -0.115     (0)  
   MgCO3           2.113e-06   2.206e-06    -5.675    -5.656     0.019    -17.09
   MgHCO3+         9.410e-07   6.805e-07    -6.026    -6.167    -0.141      5.71
Na            9.988e-02
   Na+             9.504e-02   7.137e-02    -1.022    -1.146    -0.124     -0.95
   NaSO4-          4.842e-03   3.612e-03    -2.315    -2.442    -0.127     19.09
   NaHCO3          5.989e-07   6.393e-07    -6.223    -6.194     0.028     17.66
   Na2SO4          1.210e-07   1.257e-07    -6.917    -6.901     0.017     47.96
O(0)          0.000e+00
   O2              0.000e+00   0.000e+00   -63.578   -63.559     0.019     30.40
S(-2)         4.224e-23
   HS-             4.194e-23   2.986e-23   -22.377   -22.525    -0.147     20.98
   H2S             2.951e-25   3.081e-25   -24.530   -24.511     0.019     36.27
   S-2             1.004e-26   3.057e-27   -25.998   -26.515    -0.516     (0)  
   (H2S)2          0.000e+00   0.000e+00   -50.320   -50.301     0.019     30.09
S(6)          3.293e-02
   SO4-2           1.924e-02   5.761e-03    -1.716    -2.240    -0.524     15.50
   NaSO4-          4.842e-03   3.612e-03    -2.315    -2.442    -0.127     19.09
   MgSO4           4.440e-03   4.840e-03    -2.353    -2.315     0.038     -0.40
   CaSO4           3.901e-03   3.977e-03    -2.409    -2.400     0.008      7.22
   Mg(SO4)2-2      2.494e-04   9.184e-05    -3.603    -4.037    -0.434     44.90
   Na2SO4          1.210e-07   1.257e-07    -6.917    -6.901     0.017     47.96
   HSO4-           8.821e-10   6.608e-10    -9.054    -9.180    -0.125     40.64
   CaHSO4+         5.249e-11   3.932e-11   -10.280   -10.405    -0.125     (0)  

------------------------------Saturation indices-------------------------------

  Phase               SI** log IAP   log K(298 K,   1 atm)

  Anhydrite        -0.23     -4.54   -4.31  CaSO4
  Aragonite        -0.11     -8.45   -8.34  CaCO3
  Calcite           0.00     -8.45   -8.45  CaCO3
  CH4(g)          -25.13    -27.94   -2.80  CH4
  CO2(g)           -5.85     -7.32   -1.47  CO2
  Dolomite          0.00    -17.08  -17.08  CaMg(CO3)2
  Epsomite         -3.01     -4.75   -1.74  MgSO4:7H2O
  Gypsum            0.00     -4.55   -4.55  CaSO4:2H2O
  H2(g)           -11.30    -14.40   -3.10  H2
  H2O(g)           -1.50     -0.00    1.50  H2O
  H2S(g)          -23.52    -31.45   -7.94  H2S
  Halite           -3.86     -2.29    1.57  NaCl
  Hexahydrite      -3.18     -4.74   -1.57  MgSO4:6H2O
  Kieserite        -3.57     -4.74   -1.16  MgSO4:H2O
  Mirabilite       -3.85     -4.55   -0.71  Na2SO4:10H2O
  O2(g)           -60.67    -63.56   -2.89  O2
  Sulfur          -18.14    -13.26    4.88  S
  Thenardite       -5.18     -4.53    0.65  Na2SO4

**For a gas, SI = log10(fugacity). Fugacity = pressure * phi / 1 atm.
  For ideal gases, phi = 1.

------------------
End of simulation.
------------------

------------------------------------
Reading input data for simulation 4.
------------------------------------

	SELECTED_OUTPUT
	      file donly.sel
	      reset false
	      solution
		totals  Na Mg Ca S C Cl
		equilibrium_phases Calcite Dolomite Gypsum 
	USER_PUNCH
	heading pH
	10 PUNCH -LA("H+")
	END
------------------
End of simulation.
------------------

------------------------------------
Reading input data for simulation 5.
------------------------------------

	ADVECTION
		cells 30
		shifts 10
	        print_frequency 5
	END
------------------------------------
Beginning of advection calculations.
------------------------------------

Beginning of advection time step 1, cumulative pore volumes 0.033333.
Beginning of advection time step 2, cumulative pore volumes 0.066667.
Beginning of advection time step 3, cumulative pore volumes 0.100000.
Beginning of advection time step 4, cumulative pore volumes 0.133333.
Beginning of advection time step 5, cumulative pore volumes 0.166667.

Cell 1.

Using solution 1.	
Using exchange 1.	Exchange assemblage after simulation 5.
Using pure phase assemblage 1.	Pure-phase assemblage after simulation 5.

-------------------------------Phase assemblage--------------------------------

                                                      Moles in assemblage
Phase               SI  log IAP  log K(T, P)   Initial       Final       Delta

Calcite           0.00    -8.45     -8.45    1.133e+00   1.167e+00   3.415e-02
Dolomite          0.00   -17.08    -17.08    9.669e-01   9.581e-01  -8.771e-03
Gypsum            0.00    -4.55     -4.55    8.596e-01   8.238e-01  -3.576e-02

-----------------------------Exchange composition------------------------------

X                1.500e+00 mol

	                               Equiv-    Equivalent      Log 
	Species             Moles      alents      Fraction     Gamma

	CaX2              4.570e-01   9.140e-01   6.093e-01    -0.415
	NaX               1.980e-01   1.980e-01   1.320e-01    -0.107
	MgX2              1.792e-01   3.585e-01   2.390e-01    -0.397
	KX                2.955e-02   2.955e-02   1.970e-02    -0.119
	NH4X              1.178e-52   1.178e-52   7.855e-53     0.000

-----------------------------Solution composition------------------------------

	Elements           Molality       Moles

	C                 3.228e-02   3.233e-02
	Ca                1.255e-02   1.257e-02
	Cl                8.174e-04   8.186e-04
	K                 1.321e-03   1.323e-03
	Mg                1.069e-02   1.071e-02
	N                 3.579e-06   3.585e-06
	Na                4.262e-02   4.269e-02
	S                 3.570e-02   3.576e-02

----------------------------Description of solution----------------------------

                                       pH  =   6.257      Charge balance
                                       pe  =  13.020      Adjusted to redox equilibrium
      Specific Conductance (µS/cm,  25°C)  = 7068
                          Density (g/cm³)  =   1.00285
                               Volume (L)  =   1.00567
                        Viscosity (mPa s)  =   0.91204
                        Activity of water  =   0.998
                 Ionic strength (mol/kgw)  =   1.060e-01
                       Mass of water (kg)  =   1.002e+00
                 Total alkalinity (eq/kg)  =   1.675e-02
                       Total CO2 (mol/kg)  =   3.228e-02
                         Temperature (°C)  =  25.00
                  Electrical balance (eq)  =   1.454e-03
 Percent error, 100*(Cat-|An|)/(Cat+|An|)  =   1.06
                               Iterations  =  16
                                  Total H  = 1.112026e+02
                                  Total O  = 5.581742e+01

----------------------------Distribution of species----------------------------

                                               Log       Log       Log    mole V
   Species          Molality    Activity  Molality  Activity     Gamma   cm³/mol

   H+              6.717e-07   5.528e-07    -6.173    -6.257    -0.085      0.00
   OH-             2.413e-08   1.827e-08    -7.617    -7.738    -0.121     -3.72
   H2O             5.551e+01   9.979e-01     1.744    -0.001     0.000     18.07
C(-4)         0.000e+00
   CH4             0.000e+00   0.000e+00  -131.642  -131.632     0.011     35.46
C(4)          3.228e-02
   HCO3-           1.612e-02   1.268e-02    -1.793    -1.897    -0.104     25.42
   CO2             1.553e-02   1.579e-02    -1.809    -1.802     0.007     34.79
   MgHCO3+         4.167e-04   3.188e-04    -3.380    -3.496    -0.116      5.66
   NaHCO3          1.862e-04   1.932e-04    -3.730    -3.714     0.016     17.66
   CaCO3           5.844e-06   5.989e-06    -5.233    -5.223     0.011    -14.60
   KHCO3           4.932e-06   5.054e-06    -5.307    -5.296     0.011     21.42
   (CO2)2          3.987e-06   4.052e-06    -5.399    -5.392     0.007     68.75
   CO3-2           2.836e-06   1.075e-06    -5.547    -5.968    -0.421     -3.22
   MgCO3           2.153e-06   2.206e-06    -5.667    -5.656     0.011    -17.09
   CaHCO3+         4.651e-09   3.684e-09    -8.332    -8.434    -0.101      9.84
Ca            1.255e-02
   Ca+2            8.626e-03   3.315e-03    -2.064    -2.479    -0.415    -17.42
   CaSO4           3.917e-03   3.960e-03    -2.407    -2.402     0.005      7.22
   CaCO3           5.844e-06   5.989e-06    -5.233    -5.223     0.011    -14.60
   CaHSO4+         2.358e-08   1.834e-08    -7.627    -7.737    -0.109     (0)  
   CaHCO3+         4.651e-09   3.684e-09    -8.332    -8.434    -0.101      9.84
   CaOH+           1.277e-09   9.932e-10    -8.894    -9.003    -0.109     (0)  
Cl            8.174e-04
   Cl-             8.174e-04   6.231e-04    -3.088    -3.205    -0.118     18.35
   HCl             1.070e-10   1.187e-10    -9.971    -9.926     0.045     20.36
H(0)          0.000e+00
   H2              0.000e+00   0.000e+00   -41.717   -41.706     0.011     14.99
K             1.321e-03
   K+              1.175e-03   8.926e-04    -2.930    -3.049    -0.119      9.25
   KSO4-           1.415e-04   1.163e-04    -3.849    -3.934    -0.085     26.15
   KHCO3           4.932e-06   5.054e-06    -5.307    -5.296     0.011     21.42
Mg            1.069e-02
   Mg+2            5.363e-03   2.150e-03    -2.271    -2.668    -0.397    -21.12
   MgSO4           4.589e-03   4.819e-03    -2.338    -2.317     0.021     -0.40
   MgHCO3+         4.167e-04   3.188e-04    -3.380    -3.496    -0.116      5.66
   Mg(SO4)2-2      3.222e-04   1.359e-04    -3.492    -3.867    -0.375     43.35
   MgCO3           2.153e-06   2.206e-06    -5.667    -5.656     0.011    -17.09
   MgOH+           1.765e-08   1.409e-08    -7.753    -7.851    -0.098     (0)  
N(-3)         0.000e+00
   NH4+            0.000e+00   0.000e+00   -53.098   -53.229    -0.131     18.16
   NH4SO4-         0.000e+00   0.000e+00   -53.841   -53.944    -0.103     35.67
   NH3             0.000e+00   0.000e+00   -56.227   -56.216     0.011     24.42
N(0)          8.694e-10
   N2              4.347e-10   4.454e-10    -9.362    -9.351     0.011     29.29
N(3)          3.707e-16
   NO2-            3.707e-16   2.775e-16   -15.431   -15.557    -0.126     25.24
N(5)          3.578e-06
   NO3-            3.578e-06   2.679e-06    -5.446    -5.572    -0.126     29.78
Na            4.262e-02
   Na+             3.945e-02   3.084e-02    -1.404    -1.511    -0.107     -1.08
   NaSO4-          2.985e-03   2.320e-03    -2.525    -2.635    -0.109     18.39
   NaHCO3          1.862e-04   1.932e-04    -3.730    -3.714     0.016     17.66
   Na2SO4          3.414e-08   3.489e-08    -7.467    -7.457     0.009     47.96
O(0)          2.173e-09
   O2              1.087e-09   1.114e-09    -8.964    -8.953     0.011     30.40
S(-2)         0.000e+00
   H2S             0.000e+00   0.000e+00  -128.220  -128.209     0.011     36.27
   HS-             0.000e+00   0.000e+00  -128.773  -128.893    -0.121     20.88
   S-2             0.000e+00   0.000e+00  -135.121  -135.554    -0.433     (0)  
   (H2S)2          0.000e+00   0.000e+00  -257.707  -257.697     0.011     30.09
S(6)          3.570e-02
   SO4-2           2.342e-02   8.563e-03    -1.630    -2.067    -0.437     15.18
   MgSO4           4.589e-03   4.819e-03    -2.338    -2.317     0.021     -0.40
   CaSO4           3.917e-03   3.960e-03    -2.407    -2.402     0.005      7.22
   NaSO4-          2.985e-03   2.320e-03    -2.525    -2.635    -0.109     18.39
   Mg(SO4)2-2      3.222e-04   1.359e-04    -3.492    -3.867    -0.375     43.35
   KSO4-           1.415e-04   1.163e-04    -3.849    -3.934    -0.085     26.15
   HSO4-           5.916e-07   4.602e-07    -6.228    -6.337    -0.109     40.55
   Na2SO4          3.414e-08   3.489e-08    -7.467    -7.457     0.009     47.96
   CaHSO4+         2.358e-08   1.834e-08    -7.627    -7.737    -0.109     (0)  
   NH4SO4-         0.000e+00   0.000e+00   -53.841   -53.944    -0.103     35.67

------------------------------Saturation indices-------------------------------

  Phase               SI** log IAP   log K(298 K,   1 atm)

  Anhydrite        -0.23     -4.55   -4.31  CaSO4
  Aragonite        -0.11     -8.45   -8.34  CaCO3
  Arcanite         -6.29     -8.17   -1.88  K2SO4
  Calcite           0.00     -8.45   -8.45  CaCO3
  CH4(g)         -128.83   -131.63   -2.80  CH4
  CO2(g)           -0.33     -1.80   -1.47  CO2
  Dolomite          0.00    -17.08  -17.08  CaMg(CO3)2
  Epsomite         -3.00     -4.74   -1.74  MgSO4:7H2O
  Gypsum            0.00     -4.55   -4.55  CaSO4:2H2O
  H2(g)           -38.61    -41.71   -3.10  H2
  H2O(g)           -1.50     -0.00    1.50  H2O
  H2S(g)         -127.21   -135.15   -7.94  H2S
  Halite           -6.29     -4.72    1.57  NaCl
  Hexahydrite      -3.17     -4.74   -1.57  MgSO4:6H2O
  Kieserite        -3.57     -4.74   -1.16  MgSO4:H2O
  Mirabilite       -4.39     -5.10   -0.71  Na2SO4:10H2O
  N2(g)            -6.18     -9.35   -3.18  N2
  NH3(g)          -58.01    -56.22    1.80  NH3
  O2(g)            -6.06     -8.95   -2.89  O2
  Sulfur          -94.54    -89.65    4.88  S
  Sylvite          -7.15     -6.25    0.90  KCl
  Thenardite       -5.74     -5.09    0.65  Na2SO4

**For a gas, SI = log10(fugacity). Fugacity = pressure * phi / 1 atm.
  For ideal gases, phi = 1.


Cell 2.

Using solution 2.	Solution after simulation 5.
Using exchange 2.	Exchange assemblage after simulation 5.
Using pure phase assemblage 2.	Pure-phase assemblage after simulation 5.

-------------------------------Phase assemblage--------------------------------

                                                      Moles in assemblage
Phase               SI  log IAP  log K(T, P)   Initial       Final       Delta

Calcite           0.00    -8.45     -8.45    1.024e+00   1.024e+00   1.738e-04
Dolomite          0.00   -17.08    -17.08    9.878e-01   9.877e-01  -1.025e-04
Gypsum            0.00    -4.55     -4.55    9.712e-01   9.709e-01  -3.423e-04

-----------------------------Exchange composition------------------------------

X                1.500e+00 mol

	                               Equiv-    Equivalent      Log 
	Species             Moles      alents      Fraction     Gamma

	CaX2              4.567e-01   9.133e-01   6.089e-01    -0.416
	NaX               1.999e-01   1.999e-01   1.333e-01    -0.107
	MgX2              1.791e-01   3.582e-01   2.388e-01    -0.397
	KX                2.856e-02   2.856e-02   1.904e-02    -0.119
	NH4X              1.177e-52   1.177e-52   7.848e-53    -0.000

-----------------------------Solution composition------------------------------

	Elements           Molality       Moles

	C                 3.230e-02   3.235e-02
	Ca                1.253e-02   1.255e-02
	Cl                8.174e-04   8.186e-04
	K                 1.276e-03   1.278e-03
	Mg                1.068e-02   1.070e-02
	N                 3.579e-06   3.585e-06
	Na                4.301e-02   4.308e-02
	S                 3.583e-02   3.589e-02

----------------------------Description of solution----------------------------

                                       pH  =   6.258      Charge balance
                                       pe  =  13.019      Adjusted to redox equilibrium
      Specific Conductance (µS/cm,  25°C)  = 7092
                          Density (g/cm³)  =   1.00287
                               Volume (L)  =   1.00567
                        Viscosity (mPa s)  =   0.91209
                        Activity of water  =   0.998
                 Ionic strength (mol/kgw)  =   1.063e-01
                       Mass of water (kg)  =   1.002e+00
                 Total alkalinity (eq/kg)  =   1.677e-02
                       Total CO2 (mol/kg)  =   3.230e-02
                         Temperature (°C)  =  25.00
                  Electrical balance (eq)  =   1.454e-03
 Percent error, 100*(Cat-|An|)/(Cat+|An|)  =   1.06
                               Iterations  =   3
                                  Total H  = 1.112032e+02
                                  Total O  = 5.581823e+01

----------------------------Distribution of species----------------------------

                                               Log       Log       Log    mole V
   Species          Molality    Activity  Molality  Activity     Gamma   cm³/mol

   H+              6.705e-07   5.517e-07    -6.174    -6.258    -0.085      0.00
   OH-             2.419e-08   1.831e-08    -7.616    -7.737    -0.121     -3.71
   H2O             5.551e+01   9.979e-01     1.744    -0.001     0.000     18.07
C(-4)         0.000e+00
   CH4             0.000e+00   0.000e+00  -131.642  -131.631     0.011     35.46
C(4)          3.230e-02
   HCO3-           1.614e-02   1.269e-02    -1.792    -1.897    -0.105     25.42
   CO2             1.552e-02   1.578e-02    -1.809    -1.802     0.007     34.79
   MgHCO3+         4.160e-04   3.182e-04    -3.381    -3.497    -0.116      5.66
   NaHCO3          1.881e-04   1.951e-04    -3.726    -3.710     0.016     17.66
   CaCO3           5.844e-06   5.989e-06    -5.233    -5.223     0.011    -14.60
   KHCO3           4.767e-06   4.885e-06    -5.322    -5.311     0.011     21.42
   (CO2)2          3.981e-06   4.046e-06    -5.400    -5.393     0.007     68.75
   CO3-2           2.847e-06   1.079e-06    -5.546    -5.967    -0.421     -3.22
   MgCO3           2.152e-06   2.206e-06    -5.667    -5.656     0.011    -17.09
   CaHCO3+         4.643e-09   3.677e-09    -8.333    -8.434    -0.101      9.84
Ca            1.253e-02
   Ca+2            8.607e-03   3.305e-03    -2.065    -2.481    -0.416    -17.42
   CaSO4           3.917e-03   3.960e-03    -2.407    -2.402     0.005      7.22
   CaCO3           5.844e-06   5.989e-06    -5.233    -5.223     0.011    -14.60
   CaHSO4+         2.354e-08   1.831e-08    -7.628    -7.737    -0.109     (0)  
   CaHCO3+         4.643e-09   3.677e-09    -8.333    -8.434    -0.101      9.84
   CaOH+           1.275e-09   9.920e-10    -8.894    -9.003    -0.109     (0)  
Cl            8.174e-04
   Cl-             8.174e-04   6.230e-04    -3.088    -3.206    -0.118     18.35
   HCl             1.067e-10   1.184e-10    -9.972    -9.927     0.045     20.36
H(0)          0.000e+00
   H2              0.000e+00   0.000e+00   -41.716   -41.705     0.011     14.99
K             1.276e-03
   K+              1.134e-03   8.618e-04    -2.945    -3.065    -0.119      9.25
   KSO4-           1.370e-04   1.126e-04    -3.863    -3.948    -0.085     26.16
   KHCO3           4.767e-06   4.885e-06    -5.322    -5.311     0.011     21.42
Mg            1.068e-02
   Mg+2            5.350e-03   2.143e-03    -2.272    -2.669    -0.397    -21.12
   MgSO4           4.589e-03   4.819e-03    -2.338    -2.317     0.021     -0.40
   MgHCO3+         4.160e-04   3.182e-04    -3.381    -3.497    -0.116      5.66
   Mg(SO4)2-2      3.235e-04   1.363e-04    -3.490    -3.865    -0.375     43.36
   MgCO3           2.152e-06   2.206e-06    -5.667    -5.656     0.011    -17.09
   MgOH+           1.764e-08   1.407e-08    -7.754    -7.852    -0.098     (0)  
N(-3)         0.000e+00
   NH4+            0.000e+00   0.000e+00   -53.099   -53.230    -0.131     18.16
   NH4SO4-         0.000e+00   0.000e+00   -53.840   -53.943    -0.103     35.68
   NH3             0.000e+00   0.000e+00   -56.227   -56.216     0.011     24.42
N(0)          8.682e-10
   N2              4.341e-10   4.449e-10    -9.362    -9.352     0.011     29.29
N(3)          3.710e-16
   NO2-            3.710e-16   2.776e-16   -15.431   -15.557    -0.126     25.24
N(5)          3.578e-06
   NO3-            3.578e-06   2.678e-06    -5.446    -5.572    -0.126     29.78
Na            4.301e-02
   Na+             3.980e-02   3.111e-02    -1.400    -1.507    -0.107     -1.08
   NaSO4-          3.021e-03   2.347e-03    -2.520    -2.629    -0.110     18.39
   NaHCO3          1.881e-04   1.951e-04    -3.726    -3.710     0.016     17.66
   Na2SO4          3.484e-08   3.561e-08    -7.458    -7.448     0.009     47.96
O(0)          2.170e-09
   O2              1.085e-09   1.112e-09    -8.964    -8.954     0.011     30.40
S(-2)         0.000e+00
   H2S             0.000e+00   0.000e+00  -128.219  -128.208     0.011     36.27
   HS-             0.000e+00   0.000e+00  -128.771  -128.892    -0.121     20.88
   S-2             0.000e+00   0.000e+00  -135.118  -135.551    -0.433     (0)  
   (H2S)2          0.000e+00   0.000e+00  -257.706  -257.695     0.011     30.09
S(6)          3.583e-02
   SO4-2           2.352e-02   8.589e-03    -1.629    -2.066    -0.437     15.18
   MgSO4           4.589e-03   4.819e-03    -2.338    -2.317     0.021     -0.40
   CaSO4           3.917e-03   3.960e-03    -2.407    -2.402     0.005      7.22
   NaSO4-          3.021e-03   2.347e-03    -2.520    -2.629    -0.110     18.39
   Mg(SO4)2-2      3.235e-04   1.363e-04    -3.490    -3.865    -0.375     43.36
   KSO4-           1.370e-04   1.126e-04    -3.863    -3.948    -0.085     26.16
   HSO4-           5.924e-07   4.607e-07    -6.227    -6.337    -0.109     40.55
   Na2SO4          3.484e-08   3.561e-08    -7.458    -7.448     0.009     47.96
   CaHSO4+         2.354e-08   1.831e-08    -7.628    -7.737    -0.109     (0)  
   NH4SO4-         0.000e+00   0.000e+00   -53.840   -53.943    -0.103     35.68

------------------------------Saturation indices-------------------------------

  Phase               SI** log IAP   log K(298 K,   1 atm)

  Anhydrite        -0.23     -4.55   -4.31  CaSO4
  Aragonite        -0.11     -8.45   -8.34  CaCO3
  Arcanite         -6.32     -8.20   -1.88  K2SO4
  Calcite           0.00     -8.45   -8.45  CaCO3
  CH4(g)         -128.83   -131.63   -2.80  CH4
  CO2(g)           -0.33     -1.80   -1.47  CO2
  Dolomite          0.00    -17.08  -17.08  CaMg(CO3)2
  Epsomite         -3.00     -4.74   -1.74  MgSO4:7H2O
  Gypsum            0.00     -4.55   -4.55  CaSO4:2H2O
  H2(g)           -38.61    -41.71   -3.10  H2
  H2O(g)           -1.50     -0.00    1.50  H2O
  H2S(g)         -127.21   -135.15   -7.94  H2S
  Halite           -6.28     -4.71    1.57  NaCl
  Hexahydrite      -3.17     -4.74   -1.57  MgSO4:6H2O
  Kieserite        -3.57     -4.74   -1.16  MgSO4:H2O
  Mirabilite       -4.38     -5.09   -0.71  Na2SO4:10H2O
  N2(g)            -6.18     -9.35   -3.18  N2
  NH3(g)          -58.01    -56.22    1.80  NH3
  O2(g)            -6.06     -8.95   -2.89  O2
  Sulfur          -94.54    -89.65    4.88  S
  Sylvite          -7.17     -6.27    0.90  KCl
  Thenardite       -5.73     -5.08    0.65  Na2SO4

**For a gas, SI = log10(fugacity). Fugacity = pressure * phi / 1 atm.
  For ideal gases, phi = 1.


Cell 3.

Using solution 3.	Solution after simulation 5.
Using exchange 3.	Exchange assemblage after simulation 5.
Using pure phase assemblage 3.	Pure-phase assemblage after simulation 5.

-------------------------------Phase assemblage--------------------------------

                                                      Moles in assemblage
Phase               SI  log IAP  log K(T, P)   Initial       Final       Delta

Calcite           0.00    -8.45     -8.45    1.023e+00   1.023e+00   2.525e-04
Dolomite          0.00   -17.08    -17.08    9.886e-01   9.885e-01  -1.483e-04
Gypsum            0.00    -4.55     -4.55    9.740e-01   9.735e-01  -4.961e-04

-----------------------------Exchange composition------------------------------

X                1.500e+00 mol

	                               Equiv-    Equivalent      Log 
	Species             Moles      alents      Fraction     Gamma

	CaX2              4.542e-01   9.083e-01   6.056e-01    -0.417
	NaX               2.072e-01   2.072e-01   1.381e-01    -0.107
	MgX2              1.781e-01   3.561e-01   2.374e-01    -0.399
	KX                2.833e-02   2.833e-02   1.888e-02    -0.120
	NH4X              1.172e-52   1.172e-52   7.811e-53    -0.000

-----------------------------Solution composition------------------------------

	Elements           Molality       Moles

	C                 3.235e-02   3.240e-02
	Ca                1.245e-02   1.247e-02
	Cl                8.173e-04   8.186e-04
	K                 1.265e-03   1.267e-03
	Mg                1.063e-02   1.064e-02
	N                 3.579e-06   3.585e-06
	Na                4.453e-02   4.460e-02
	S                 3.640e-02   3.646e-02

----------------------------Description of solution----------------------------

                                       pH  =   6.262      Charge balance
                                       pe  =  13.015      Adjusted to redox equilibrium
      Specific Conductance (µS/cm,  25°C)  = 7199
                          Density (g/cm³)  =   1.00294
                               Volume (L)  =   1.00570
                        Viscosity (mPa s)  =   0.91228
                        Activity of water  =   0.998
                 Ionic strength (mol/kgw)  =   1.077e-01
                       Mass of water (kg)  =   1.002e+00
                 Total alkalinity (eq/kg)  =   1.688e-02
                       Total CO2 (mol/kg)  =   3.235e-02
                         Temperature (°C)  =  25.00
                  Electrical balance (eq)  =   1.454e-03
 Percent error, 100*(Cat-|An|)/(Cat+|An|)  =   1.04
                               Iterations  =   3
                                  Total H  = 1.112054e+02
                                  Total O  = 5.582181e+01

----------------------------Distribution of species----------------------------

                                               Log       Log       Log    mole V
   Species          Molality    Activity  Molality  Activity     Gamma   cm³/mol

   H+              6.655e-07   5.473e-07    -6.177    -6.262    -0.085      0.00
   OH-             2.442e-08   1.846e-08    -7.612    -7.734    -0.122     -3.71
   H2O             5.551e+01   9.979e-01     1.744    -0.001     0.000     18.07
C(-4)         0.000e+00
   CH4             0.000e+00   0.000e+00  -131.638  -131.628     0.011     35.46
C(4)          3.235e-02
   HCO3-           1.624e-02   1.275e-02    -1.789    -1.894    -0.105     25.43
   CO2             1.547e-02   1.573e-02    -1.810    -1.803     0.007     34.79
   MgHCO3+         4.132e-04   3.156e-04    -3.384    -3.501    -0.117      5.66
   NaHCO3          1.952e-04   2.027e-04    -3.709    -3.693     0.016     17.66
   CaCO3           5.842e-06   5.989e-06    -5.233    -5.223     0.011    -14.60
   KHCO3           4.735e-06   4.854e-06    -5.325    -5.314     0.011     21.42
   (CO2)2          3.956e-06   4.021e-06    -5.403    -5.396     0.007     68.75
   CO3-2           2.896e-06   1.093e-06    -5.538    -5.961    -0.423     -3.21
   MgCO3           2.152e-06   2.206e-06    -5.667    -5.656     0.011    -17.09
   CaHCO3+         4.609e-09   3.647e-09    -8.336    -8.438    -0.102      9.84
Ca            1.245e-02
   Ca+2            8.526e-03   3.262e-03    -2.069    -2.487    -0.417    -17.41
   CaSO4           3.916e-03   3.960e-03    -2.407    -2.402     0.005      7.22
   CaCO3           5.842e-06   5.989e-06    -5.233    -5.223     0.011    -14.60
   CaHSO4+         2.337e-08   1.816e-08    -7.631    -7.741    -0.110     (0)  
   CaHCO3+         4.609e-09   3.647e-09    -8.336    -8.438    -0.102      9.84
   CaOH+           1.270e-09   9.870e-10    -8.896    -9.006    -0.110     (0)  
Cl            8.173e-04
   Cl-             8.173e-04   6.222e-04    -3.088    -3.206    -0.118     18.35
   HCl             1.055e-10   1.173e-10    -9.977    -9.931     0.046     20.36
H(0)          0.000e+00
   H2              0.000e+00   0.000e+00   -41.715   -41.704     0.011     14.99
K             1.265e-03
   K+              1.123e-03   8.520e-04    -2.950    -3.070    -0.120      9.25
   KSO4-           1.373e-04   1.128e-04    -3.862    -3.948    -0.085     26.20
   KHCO3           4.735e-06   4.854e-06    -5.325    -5.314     0.011     21.42
Mg            1.063e-02
   Mg+2            5.298e-03   2.115e-03    -2.276    -2.675    -0.399    -21.11
   MgSO4           4.586e-03   4.820e-03    -2.339    -2.317     0.022     -0.40
   MgHCO3+         4.132e-04   3.156e-04    -3.384    -3.501    -0.117      5.66
   Mg(SO4)2-2      3.288e-04   1.382e-04    -3.483    -3.860    -0.377     43.39
   MgCO3           2.152e-06   2.206e-06    -5.667    -5.656     0.011    -17.09
   MgOH+           1.756e-08   1.400e-08    -7.755    -7.854    -0.098     (0)  
N(-3)         0.000e+00
   NH4+            0.000e+00   0.000e+00   -53.101   -53.233    -0.132     18.16
   NH4SO4-         0.000e+00   0.000e+00   -53.837   -53.940    -0.103     35.69
   NH3             0.000e+00   0.000e+00   -56.226   -56.215     0.011     24.42
N(0)          8.632e-10
   N2              4.316e-10   4.424e-10    -9.365    -9.354     0.011     29.29
N(3)          3.720e-16
   NO2-            3.720e-16   2.780e-16   -15.429   -15.556    -0.126     25.25
N(5)          3.578e-06
   NO3-            3.578e-06   2.674e-06    -5.446    -5.573    -0.126     29.78
Na            4.453e-02
   Na+             4.117e-02   3.215e-02    -1.385    -1.493    -0.107     -1.08
   NaSO4-          3.167e-03   2.458e-03    -2.499    -2.609    -0.110     18.41
   NaHCO3          1.952e-04   2.027e-04    -3.709    -3.693     0.016     17.66
   Na2SO4          3.770e-08   3.853e-08    -7.424    -7.414     0.010     47.96
O(0)          2.158e-09
   O2              1.079e-09   1.106e-09    -8.967    -8.956     0.011     30.40
S(-2)         0.000e+00
   H2S             0.000e+00   0.000e+00  -128.216  -128.205     0.011     36.27
   HS-             0.000e+00   0.000e+00  -128.763  -128.885    -0.122     20.88
   S-2             0.000e+00   0.000e+00  -135.106  -135.541    -0.435     (0)  
   (H2S)2          0.000e+00   0.000e+00  -257.699  -257.688     0.011     30.09
S(6)          3.640e-02
   SO4-2           2.394e-02   8.704e-03    -1.621    -2.060    -0.439     15.19
   MgSO4           4.586e-03   4.820e-03    -2.339    -2.317     0.022     -0.40
   CaSO4           3.916e-03   3.960e-03    -2.407    -2.402     0.005      7.22
   NaSO4-          3.167e-03   2.458e-03    -2.499    -2.609    -0.110     18.41
   Mg(SO4)2-2      3.288e-04   1.382e-04    -3.483    -3.860    -0.377     43.39
   KSO4-           1.373e-04   1.128e-04    -3.862    -3.948    -0.085     26.20
   HSO4-           5.960e-07   4.631e-07    -6.225    -6.334    -0.110     40.55
   Na2SO4          3.770e-08   3.853e-08    -7.424    -7.414     0.010     47.96
   CaHSO4+         2.337e-08   1.816e-08    -7.631    -7.741    -0.110     (0)  
   NH4SO4-         0.000e+00   0.000e+00   -53.837   -53.940    -0.103     35.69

------------------------------Saturation indices-------------------------------

  Phase               SI** log IAP   log K(298 K,   1 atm)

  Anhydrite        -0.23     -4.55   -4.31  CaSO4
  Aragonite        -0.11     -8.45   -8.34  CaCO3
  Arcanite         -6.32     -8.20   -1.88  K2SO4
  Calcite           0.00     -8.45   -8.45  CaCO3
  CH4(g)         -128.83   -131.63   -2.80  CH4
  CO2(g)           -0.34     -1.80   -1.47  CO2
  Dolomite          0.00    -17.08  -17.08  CaMg(CO3)2
  Epsomite         -3.00     -4.74   -1.74  MgSO4:7H2O
  Gypsum            0.00     -4.55   -4.55  CaSO4:2H2O
  H2(g)           -38.60    -41.70   -3.10  H2
  H2O(g)           -1.50     -0.00    1.50  H2O
  H2S(g)         -127.21   -135.15   -7.94  H2S
  Halite           -6.27     -4.70    1.57  NaCl
  Hexahydrite      -3.17     -4.74   -1.57  MgSO4:6H2O
  Kieserite        -3.57     -4.74   -1.16  MgSO4:H2O
  Mirabilite       -4.35     -5.06   -0.71  Na2SO4:10H2O
  N2(g)            -6.18     -9.35   -3.18  N2
  NH3(g)          -58.01    -56.22    1.80  NH3
  O2(g)            -6.06     -8.96   -2.89  O2
  Sulfur          -94.53    -89.65    4.88  S
  Sylvite          -7.18     -6.28    0.90  KCl
  Thenardite       -5.70     -5.05    0.65  Na2SO4

**For a gas, SI = log10(fugacity). Fugacity = pressure * phi / 1 atm.
  For ideal gases, phi = 1.


Cell 4.

Using solution 4.	Solution after simulation 5.
Using exchange 4.	Exchange assemblage after simulation 5.
Using pure phase assemblage 4.	Pure-phase assemblage after simulation 5.

-------------------------------Phase assemblage--------------------------------

                                                      Moles in assemblage
Phase               SI  log IAP  log K(T, P)   Initial       Final       Delta

Calcite           0.00    -8.45     -8.45    1.022e+00   1.022e+00   6.335e-05
Dolomite          0.00   -17.08    -17.08    9.889e-01   9.888e-01  -3.713e-05
Gypsum            0.00    -4.55     -4.55    9.747e-01   9.746e-01  -1.241e-04

-----------------------------Exchange composition------------------------------

X                1.500e+00 mol

	                               Equiv-    Equivalent      Log 
	Species             Moles      alents      Fraction     Gamma

	CaX2              4.532e-01   9.063e-01   6.042e-01    -0.418
	NaX               2.101e-01   2.101e-01   1.401e-01    -0.108
	MgX2              1.776e-01   3.553e-01   2.368e-01    -0.399
	KX                2.831e-02   2.831e-02   1.887e-02    -0.120
	NH4X              1.169e-52   1.169e-52   7.796e-53    -0.000

-----------------------------Solution composition------------------------------

	Elements           Molality       Moles

	C                 3.237e-02   3.242e-02
	Ca                1.242e-02   1.244e-02
	Cl                8.173e-04   8.186e-04
	K                 1.264e-03   1.266e-03
	Mg                1.061e-02   1.062e-02
	N                 3.579e-06   3.585e-06
	Na                4.514e-02   4.521e-02
	S                 3.663e-02   3.669e-02

----------------------------Description of solution----------------------------

                                       pH  =   6.263      Charge balance
                                       pe  =  13.014      Adjusted to redox equilibrium
      Specific Conductance (µS/cm,  25°C)  = 7242
                          Density (g/cm³)  =   1.00298
                               Volume (L)  =   1.00572
                        Viscosity (mPa s)  =   0.91236
                        Activity of water  =   0.998
                 Ionic strength (mol/kgw)  =   1.083e-01
                       Mass of water (kg)  =   1.002e+00
                 Total alkalinity (eq/kg)  =   1.692e-02
                       Total CO2 (mol/kg)  =   3.237e-02
                         Temperature (°C)  =  25.00
                  Electrical balance (eq)  =   1.454e-03
 Percent error, 100*(Cat-|An|)/(Cat+|An|)  =   1.04
                               Iterations  =   2
                                  Total H  = 1.112064e+02
                                  Total O  = 5.582324e+01

----------------------------Distribution of species----------------------------

                                               Log       Log       Log    mole V
   Species          Molality    Activity  Molality  Activity     Gamma   cm³/mol

   H+              6.635e-07   5.455e-07    -6.178    -6.263    -0.085      0.00
   OH-             2.451e-08   1.851e-08    -7.611    -7.732    -0.122     -3.71
   H2O             5.551e+01   9.979e-01     1.744    -0.001     0.000     18.07
C(-4)         0.000e+00
   CH4             0.000e+00   0.000e+00  -131.637  -131.626     0.011     35.46
C(4)          3.237e-02
   HCO3-           1.628e-02   1.278e-02    -1.788    -1.893    -0.105     25.44
   CO2             1.545e-02   1.571e-02    -1.811    -1.804     0.007     34.79
   MgHCO3+         4.120e-04   3.146e-04    -3.385    -3.502    -0.117      5.66
   NaHCO3          1.981e-04   2.057e-04    -3.703    -3.687     0.016     17.66
   CaCO3           5.841e-06   5.989e-06    -5.233    -5.223     0.011    -14.60
   KHCO3           4.735e-06   4.855e-06    -5.325    -5.314     0.011     21.42
   (CO2)2          3.946e-06   4.011e-06    -5.404    -5.397     0.007     68.75
   CO3-2           2.916e-06   1.099e-06    -5.535    -5.959    -0.424     -3.21
   MgCO3           2.151e-06   2.206e-06    -5.667    -5.656     0.011    -17.09
   CaHCO3+         4.596e-09   3.636e-09    -8.338    -8.439    -0.102      9.84
Ca            1.242e-02
   Ca+2            8.494e-03   3.245e-03    -2.071    -2.489    -0.418    -17.41
   CaSO4           3.916e-03   3.960e-03    -2.407    -2.402     0.005      7.22
   CaCO3           5.841e-06   5.989e-06    -5.233    -5.223     0.011    -14.60
   CaHSO4+         2.330e-08   1.810e-08    -7.633    -7.742    -0.110     (0)  
   CaHCO3+         4.596e-09   3.636e-09    -8.338    -8.439    -0.102      9.84
   CaOH+           1.268e-09   9.851e-10    -8.897    -9.007    -0.110     (0)  
Cl            8.173e-04
   Cl-             8.173e-04   6.219e-04    -3.088    -3.206    -0.119     18.35
   HCl             1.051e-10   1.169e-10    -9.978    -9.932     0.046     20.36
H(0)          0.000e+00
   H2              0.000e+00   0.000e+00   -41.715   -41.704     0.011     14.99
K             1.264e-03
   K+              1.121e-03   8.504e-04    -2.950    -3.070    -0.120      9.25
   KSO4-           1.378e-04   1.132e-04    -3.861    -3.946    -0.085     26.22
   KHCO3           4.735e-06   4.855e-06    -5.325    -5.314     0.011     21.42
Mg            1.061e-02
   Mg+2            5.277e-03   2.104e-03    -2.278    -2.677    -0.399    -21.11
   MgSO4           4.585e-03   4.820e-03    -2.339    -2.317     0.022     -0.40
   MgHCO3+         4.120e-04   3.146e-04    -3.385    -3.502    -0.117      5.66
   Mg(SO4)2-2      3.309e-04   1.389e-04    -3.480    -3.857    -0.377     43.41
   MgCO3           2.151e-06   2.206e-06    -5.667    -5.656     0.011    -17.09
   MgOH+           1.753e-08   1.397e-08    -7.756    -7.855    -0.099     (0)  
N(-3)         0.000e+00
   NH4+            0.000e+00   0.000e+00   -53.102   -53.234    -0.132     18.16
   NH4SO4-         0.000e+00   0.000e+00   -53.836   -53.939    -0.104     35.70
   NH3             0.000e+00   0.000e+00   -56.226   -56.215     0.011     24.42
N(0)          8.612e-10
   N2              4.306e-10   4.415e-10    -9.366    -9.355     0.011     29.29
N(3)          3.724e-16
   NO2-            3.724e-16   2.781e-16   -15.429   -15.556    -0.127     25.25
N(5)          3.578e-06
   NO3-            3.578e-06   2.673e-06    -5.446    -5.573    -0.127     29.78
Na            4.514e-02
   Na+             4.171e-02   3.256e-02    -1.380    -1.487    -0.108     -1.08
   NaSO4-          3.225e-03   2.503e-03    -2.491    -2.602    -0.110     18.41
   NaHCO3          1.981e-04   2.057e-04    -3.703    -3.687     0.016     17.66
   Na2SO4          3.886e-08   3.973e-08    -7.410    -7.401     0.010     47.96
O(0)          2.153e-09
   O2              1.077e-09   1.104e-09    -8.968    -8.957     0.011     30.40
S(-2)         0.000e+00
   H2S             0.000e+00   0.000e+00  -128.214  -128.204     0.011     36.27
   HS-             0.000e+00   0.000e+00  -128.760  -128.882    -0.122     20.88
   S-2             0.000e+00   0.000e+00  -135.101  -135.537    -0.436     (0)  
   (H2S)2          0.000e+00   0.000e+00  -257.696  -257.685     0.011     30.09
S(6)          3.663e-02
   SO4-2           2.410e-02   8.749e-03    -1.618    -2.058    -0.440     15.19
   MgSO4           4.585e-03   4.820e-03    -2.339    -2.317     0.022     -0.40
   CaSO4           3.916e-03   3.960e-03    -2.407    -2.402     0.005      7.22
   NaSO4-          3.225e-03   2.503e-03    -2.491    -2.602    -0.110     18.41
   Mg(SO4)2-2      3.309e-04   1.389e-04    -3.480    -3.857    -0.377     43.41
   KSO4-           1.378e-04   1.132e-04    -3.861    -3.946    -0.085     26.22
   HSO4-           5.974e-07   4.640e-07    -6.224    -6.333    -0.110     40.55
   Na2SO4          3.886e-08   3.973e-08    -7.410    -7.401     0.010     47.96
   CaHSO4+         2.330e-08   1.810e-08    -7.633    -7.742    -0.110     (0)  
   NH4SO4-         0.000e+00   0.000e+00   -53.836   -53.939    -0.104     35.70

------------------------------Saturation indices-------------------------------

  Phase               SI** log IAP   log K(298 K,   1 atm)

  Anhydrite        -0.23     -4.55   -4.31  CaSO4
  Aragonite        -0.11     -8.45   -8.34  CaCO3
  Arcanite         -6.32     -8.20   -1.88  K2SO4
  Calcite           0.00     -8.45   -8.45  CaCO3
  CH4(g)         -128.82   -131.63   -2.80  CH4
  CO2(g)           -0.34     -1.80   -1.47  CO2
  Dolomite          0.00    -17.08  -17.08  CaMg(CO3)2
  Epsomite         -3.00     -4.74   -1.74  MgSO4:7H2O
  Gypsum            0.00     -4.55   -4.55  CaSO4:2H2O
  H2(g)           -38.60    -41.70   -3.10  H2
  H2O(g)           -1.50     -0.00    1.50  H2O
  H2S(g)         -127.21   -135.15   -7.94  H2S
  Halite           -6.26     -4.69    1.57  NaCl
  Hexahydrite      -3.17     -4.74   -1.57  MgSO4:6H2O
  Kieserite        -3.57     -4.74   -1.16  MgSO4:H2O
  Mirabilite       -4.34     -5.04   -0.71  Na2SO4:10H2O
  N2(g)            -6.18     -9.36   -3.18  N2
  NH3(g)          -58.01    -56.22    1.80  NH3
  O2(g)            -6.06     -8.96   -2.89  O2
  Sulfur          -94.53    -89.65    4.88  S
  Sylvite          -7.18     -6.28    0.90  KCl
  Thenardite       -5.68     -5.03    0.65  Na2SO4

**For a gas, SI = log10(fugacity). Fugacity = pressure * phi / 1 atm.
  For ideal gases, phi = 1.


Cell 5.

Using solution 5.	Solution after simulation 5.
Using exchange 5.	Exchange assemblage after simulation 5.
Using pure phase assemblage 5.	Pure-phase assemblage after simulation 5.

-------------------------------Phase assemblage--------------------------------

                                                      Moles in assemblage
Phase               SI  log IAP  log K(T, P)   Initial       Final       Delta

Calcite           0.00    -8.45     -8.45    1.018e+00   1.022e+00   4.438e-03
Dolomite          0.00   -17.08    -17.08    9.911e-01   9.889e-01  -2.219e-03
Gypsum            0.00    -4.55     -4.55    9.748e-01   9.748e-01  -9.356e-06

-----------------------------Exchange composition------------------------------

X                1.500e+00 mol

	                               Equiv-    Equivalent      Log 
	Species             Moles      alents      Fraction     Gamma

	CaX2              4.530e-01   9.060e-01   6.040e-01    -0.418
	NaX               2.105e-01   2.105e-01   1.404e-01    -0.108
	MgX2              1.776e-01   3.551e-01   2.368e-01    -0.399
	KX                2.831e-02   2.831e-02   1.887e-02    -0.120
	NH4X              1.169e-52   1.169e-52   7.793e-53     0.000

-----------------------------Solution composition------------------------------

	Elements           Molality       Moles

	C                 3.237e-02   3.242e-02
	Ca                1.241e-02   1.243e-02
	Cl                8.173e-04   8.186e-04
	K                 1.264e-03   1.266e-03
	Mg                1.060e-02   1.062e-02
	N                 3.579e-06   3.585e-06
	Na                4.523e-02   4.530e-02
	S                 3.666e-02   3.672e-02

----------------------------Description of solution----------------------------

                                       pH  =   6.263      Charge balance
                                       pe  =  13.013      Adjusted to redox equilibrium
      Specific Conductance (µS/cm,  25°C)  = 7248
                          Density (g/cm³)  =   1.00298
                               Volume (L)  =   1.00572
                        Viscosity (mPa s)  =   0.91237
                        Activity of water  =   0.998
                 Ionic strength (mol/kgw)  =   1.084e-01
                       Mass of water (kg)  =   1.002e+00
                 Total alkalinity (eq/kg)  =   1.692e-02
                       Total CO2 (mol/kg)  =   3.237e-02
                         Temperature (°C)  =  25.00
                  Electrical balance (eq)  =   1.454e-03
 Percent error, 100*(Cat-|An|)/(Cat+|An|)  =   1.03
                               Iterations  =   5
                                  Total H  = 1.112065e+02
                                  Total O  = 5.582347e+01

----------------------------Distribution of species----------------------------

                                               Log       Log       Log    mole V
   Species          Molality    Activity  Molality  Activity     Gamma   cm³/mol

   H+              6.632e-07   5.452e-07    -6.178    -6.263    -0.085      0.00
   OH-             2.452e-08   1.852e-08    -7.610    -7.732    -0.122     -3.71
   H2O             5.551e+01   9.979e-01     1.744    -0.001     0.000     18.07
C(-4)         0.000e+00
   CH4             0.000e+00   0.000e+00  -131.637  -131.626     0.011     35.46
C(4)          3.237e-02
   HCO3-           1.629e-02   1.278e-02    -1.788    -1.893    -0.105     25.44
   CO2             1.545e-02   1.571e-02    -1.811    -1.804     0.007     34.79
   MgHCO3+         4.119e-04   3.145e-04    -3.385    -3.502    -0.117      5.66
   NaHCO3          1.985e-04   2.061e-04    -3.702    -3.686     0.016     17.66
   CaCO3           5.841e-06   5.989e-06    -5.233    -5.223     0.011    -14.60
   KHCO3           4.735e-06   4.855e-06    -5.325    -5.314     0.011     21.42
   (CO2)2          3.944e-06   4.010e-06    -5.404    -5.397     0.007     68.75
   CO3-2           2.919e-06   1.100e-06    -5.535    -5.959    -0.424     -3.21
   MgCO3           2.151e-06   2.206e-06    -5.667    -5.656     0.011    -17.09
   CaHCO3+         4.594e-09   3.634e-09    -8.338    -8.440    -0.102      9.84
Ca            1.241e-02
   Ca+2            8.489e-03   3.242e-03    -2.071    -2.489    -0.418    -17.41
   CaSO4           3.916e-03   3.960e-03    -2.407    -2.402     0.005      7.22
   CaCO3           5.841e-06   5.989e-06    -5.233    -5.223     0.011    -14.60
   CaHSO4+         2.329e-08   1.809e-08    -7.633    -7.742    -0.110     (0)  
   CaHCO3+         4.594e-09   3.634e-09    -8.338    -8.440    -0.102      9.84
   CaOH+           1.268e-09   9.848e-10    -8.897    -9.007    -0.110     (0)  
Cl            8.173e-04
   Cl-             8.173e-04   6.218e-04    -3.088    -3.206    -0.119     18.35
   HCl             1.050e-10   1.168e-10    -9.979    -9.933     0.046     20.36
H(0)          0.000e+00
   H2              0.000e+00   0.000e+00   -41.715   -41.704     0.011     14.99
K             1.264e-03
   K+              1.121e-03   8.502e-04    -2.950    -3.070    -0.120      9.25
   KSO4-           1.379e-04   1.133e-04    -3.860    -3.946    -0.085     26.23
   KHCO3           4.735e-06   4.855e-06    -5.325    -5.314     0.011     21.42
Mg            1.060e-02
   Mg+2            5.274e-03   2.102e-03    -2.278    -2.677    -0.399    -21.11
   MgSO4           4.585e-03   4.820e-03    -2.339    -2.317     0.022     -0.40
   MgHCO3+         4.119e-04   3.145e-04    -3.385    -3.502    -0.117      5.66
   Mg(SO4)2-2      3.313e-04   1.390e-04    -3.480    -3.857    -0.377     43.41
   MgCO3           2.151e-06   2.206e-06    -5.667    -5.656     0.011    -17.09
   MgOH+           1.753e-08   1.397e-08    -7.756    -7.855    -0.099     (0)  
N(-3)         0.000e+00
   NH4+            0.000e+00   0.000e+00   -53.102   -53.234    -0.132     18.16
   NH4SO4-         0.000e+00   0.000e+00   -53.836   -53.939    -0.104     35.70
   NH3             0.000e+00   0.000e+00   -56.226   -56.215     0.011     24.42
N(0)          8.609e-10
   N2              4.305e-10   4.413e-10    -9.366    -9.355     0.011     29.29
N(3)          3.724e-16
   NO2-            3.724e-16   2.782e-16   -15.429   -15.556    -0.127     25.25
N(5)          3.578e-06
   NO3-            3.578e-06   2.673e-06    -5.446    -5.573    -0.127     29.78
Na            4.523e-02
   Na+             4.180e-02   3.262e-02    -1.379    -1.486    -0.108     -1.08
   NaSO4-          3.234e-03   2.509e-03    -2.490    -2.600    -0.110     18.41
   NaHCO3          1.985e-04   2.061e-04    -3.702    -3.686     0.016     17.66
   Na2SO4          3.904e-08   3.992e-08    -7.408    -7.399     0.010     47.96
O(0)          2.152e-09
   O2              1.076e-09   1.103e-09    -8.968    -8.957     0.011     30.40
S(-2)         0.000e+00
   H2S             0.000e+00   0.000e+00  -128.214  -128.203     0.011     36.27
   HS-             0.000e+00   0.000e+00  -128.760  -128.882    -0.122     20.88
   S-2             0.000e+00   0.000e+00  -135.100  -135.536    -0.436     (0)  
   (H2S)2          0.000e+00   0.000e+00  -257.696  -257.685     0.011     30.09
S(6)          3.666e-02
   SO4-2           2.413e-02   8.756e-03    -1.617    -2.058    -0.440     15.19
   MgSO4           4.585e-03   4.820e-03    -2.339    -2.317     0.022     -0.40
   CaSO4           3.916e-03   3.960e-03    -2.407    -2.402     0.005      7.22
   NaSO4-          3.234e-03   2.509e-03    -2.490    -2.600    -0.110     18.41
   Mg(SO4)2-2      3.313e-04   1.390e-04    -3.480    -3.857    -0.377     43.41
   KSO4-           1.379e-04   1.133e-04    -3.860    -3.946    -0.085     26.23
   HSO4-           5.976e-07   4.642e-07    -6.224    -6.333    -0.110     40.55
   Na2SO4          3.904e-08   3.992e-08    -7.408    -7.399     0.010     47.96
   CaHSO4+         2.329e-08   1.809e-08    -7.633    -7.742    -0.110     (0)  
   NH4SO4-         0.000e+00   0.000e+00   -53.836   -53.939    -0.104     35.70

------------------------------Saturation indices-------------------------------

  Phase               SI** log IAP   log K(298 K,   1 atm)

  Anhydrite        -0.23     -4.55   -4.31  CaSO4
  Aragonite        -0.11     -8.45   -8.34  CaCO3
  Arcanite         -6.32     -8.20   -1.88  K2SO4
  Calcite           0.00     -8.45   -8.45  CaCO3
  CH4(g)         -128.82   -131.63   -2.80  CH4
  CO2(g)           -0.34     -1.80   -1.47  CO2
  Dolomite          0.00    -17.08  -17.08  CaMg(CO3)2
  Epsomite         -3.00     -4.74   -1.74  MgSO4:7H2O
  Gypsum            0.00     -4.55   -4.55  CaSO4:2H2O
  H2(g)           -38.60    -41.70   -3.10  H2
  H2O(g)           -1.50     -0.00    1.50  H2O
  H2S(g)         -127.21   -135.15   -7.94  H2S
  Halite           -6.26     -4.69    1.57  NaCl
  Hexahydrite      -3.17     -4.74   -1.57  MgSO4:6H2O
  Kieserite        -3.57     -4.74   -1.16  MgSO4:H2O
  Mirabilite       -4.33     -5.04   -0.71  Na2SO4:10H2O
  N2(g)            -6.18     -9.36   -3.18  N2
  NH3(g)          -58.01    -56.22    1.80  NH3
  O2(g)            -6.06     -8.96   -2.89  O2
  Sulfur          -94.53    -89.65    4.88  S
  Sylvite          -7.18     -6.28    0.90  KCl
  Thenardite       -5.68     -5.03    0.65  Na2SO4

**For a gas, SI = log10(fugacity). Fugacity = pressure * phi / 1 atm.
  For ideal gases, phi = 1.


Cell 6.

Using solution 6.	Solution after simulation 5.
Using exchange 6.	Exchange assemblage after simulation 5.
Using pure phase assemblage 6.	Pure-phase assemblage after simulation 5.

-------------------------------Phase assemblage--------------------------------

                                                      Moles in assemblage
Phase               SI  log IAP  log K(T, P)   Initial       Final       Delta

Calcite           0.00    -8.45     -8.45    1.024e+00   1.024e+00   9.842e-08
Dolomite          0.01   -17.08    -17.08    9.889e-01   9.889e-01   0.000e+00
Gypsum            0.00    -4.55     -4.55    9.734e-01   9.743e-01   8.591e-04

-----------------------------Exchange composition------------------------------

X                1.500e+00 mol

	                               Equiv-    Equivalent      Log 
	Species             Moles      alents      Fraction     Gamma

	CaX2              4.598e-01   9.196e-01   6.131e-01    -0.478
	NaX               1.904e-01   1.904e-01   1.270e-01    -0.123
	MgX2              1.805e-01   3.610e-01   2.406e-01    -0.452
	KX                2.896e-02   2.896e-02   1.931e-02    -0.142

-----------------------------Solution composition------------------------------

	Elements           Molality       Moles

	C                 3.345e-05   3.348e-05
	Ca                2.495e-02   2.497e-02
	Cl                9.991e-02   1.000e-01
	K                 1.891e-03   1.893e-03
	Mg                1.782e-02   1.784e-02
	Na                6.120e-02   6.126e-02
	S                 2.433e-02   2.435e-02

----------------------------Description of solution----------------------------

                                       pH  =   8.809      Charge balance
                                       pe  =  -3.807      Adjusted to redox equilibrium
      Specific Conductance (µS/cm,  25°C)  = 13264
                          Density (g/cm³)  =   1.00436
                               Volume (L)  =   1.00529
                        Viscosity (mPa s)  =   0.91205
                        Activity of water  =   0.996
                 Ionic strength (mol/kgw)  =   1.768e-01
                       Mass of water (kg)  =   1.001e+00
                 Total alkalinity (eq/kg)  =   6.692e-05
                       Total CO2 (mol/kg)  =   3.345e-05
                         Temperature (°C)  =  25.00
                  Electrical balance (eq)  =  -1.634e-10
 Percent error, 100*(Cat-|An|)/(Cat+|An|)  =  -0.00
                               Iterations  =   3
                                  Total H  = 1.111098e+02
                                  Total O  = 5.565242e+01

----------------------------Distribution of species----------------------------

                                               Log       Log       Log    mole V
   Species          Molality    Activity  Molality  Activity     Gamma   cm³/mol

   OH-             9.067e-06   6.500e-06    -5.043    -5.187    -0.145     -3.55
   H+              1.933e-09   1.551e-09    -8.714    -8.809    -0.096      0.00
   H2O             5.551e+01   9.963e-01     1.744    -0.002     0.000     18.07
C(-4)         1.334e-23
   CH4             1.334e-23   1.390e-23   -22.875   -22.857     0.018     35.46
C(4)          3.345e-05
   HCO3-           2.230e-05   1.686e-05    -4.652    -4.773    -0.121     25.82
   CaCO3           5.750e-06   5.989e-06    -5.240    -5.223     0.018    -14.60
   MgCO3           2.158e-06   2.247e-06    -5.666    -5.648     0.018    -17.09
   CO3-2           1.580e-06   5.096e-07    -5.801    -6.293    -0.491     -2.74
   MgHCO3+         1.253e-06   9.116e-07    -5.902    -6.040    -0.138      5.70
   NaHCO3          3.490e-07   3.711e-07    -6.457    -6.430     0.027     17.66
   CO2             5.746e-08   5.902e-08    -7.241    -7.229     0.012     34.79
   KHCO3           9.348e-09   9.736e-09    -8.029    -8.012     0.018     21.42
   CaHCO3+         1.355e-11   1.034e-11   -10.868   -10.985    -0.117      9.87
   (CO2)2          5.514e-17   5.664e-17   -16.259   -16.247     0.012     68.75
Ca            2.495e-02
   Ca+2            2.104e-02   6.996e-03    -1.677    -2.155    -0.478    -17.25
   CaSO4           3.901e-03   3.973e-03    -2.409    -2.401     0.008      7.22
   CaCO3           5.750e-06   5.989e-06    -5.240    -5.223     0.018    -14.60
   CaOH+           9.918e-07   7.456e-07    -6.004    -6.128    -0.124     (0)  
   CaHSO4+         6.870e-11   5.165e-11   -10.163   -10.287    -0.124     (0)  
   CaHCO3+         1.355e-11   1.034e-11   -10.868   -10.985    -0.117      9.87
Cl            9.991e-02
   Cl-             9.991e-02   7.241e-02    -1.000    -1.140    -0.140     18.43
   HCl             3.254e-11   3.870e-11   -10.488   -10.412     0.075     20.36
H(0)          1.340e-13
   H2              6.699e-14   6.992e-14   -13.174   -13.155     0.019     14.99
K             1.891e-03
   K+              1.793e-03   1.293e-03    -2.747    -2.888    -0.142      9.32
   KSO4-           9.835e-05   8.009e-05    -4.007    -4.096    -0.089     28.07
   KHCO3           9.348e-09   9.736e-09    -8.029    -8.012     0.018     21.42
Mg            1.782e-02
   Mg+2            1.309e-02   4.622e-03    -1.883    -2.335    -0.452    -20.96
   MgSO4           4.541e-03   4.926e-03    -2.343    -2.308     0.035     -0.40
   Mg(SO4)2-2      1.769e-04   6.605e-05    -3.752    -4.180    -0.428     44.74
   MgOH+           1.398e-05   1.078e-05    -4.855    -4.968    -0.113     (0)  
   MgCO3           2.158e-06   2.247e-06    -5.666    -5.648     0.018    -17.09
   MgHCO3+         1.253e-06   9.116e-07    -5.902    -6.040    -0.138      5.70
Na            6.120e-02
   Na+             5.908e-02   4.454e-02    -1.229    -1.351    -0.123     -0.96
   NaSO4-          2.127e-03   1.593e-03    -2.672    -2.798    -0.126     19.00
   NaHCO3          3.490e-07   3.711e-07    -6.457    -6.430     0.027     17.66
   Na2SO4          3.337e-08   3.459e-08    -7.477    -7.461     0.016     47.96
O(0)          0.000e+00
   O2              0.000e+00   0.000e+00   -66.073   -66.055     0.018     30.40
S(-2)         3.836e-18
   HS-             3.800e-18   2.724e-18   -17.420   -17.565    -0.145     20.97
   H2S             3.548e-20   3.696e-20   -19.450   -19.432     0.018     36.27
[...]

  Anhydrite        -0.23     -4.55   -4.31  CaSO4
  Aragonite        -0.11     -8.45   -8.34  CaCO3
  Arcanite         -6.31     -8.19   -1.88  K2SO4
  Calcite          -0.00     -8.45   -8.45  CaCO3
  CH4(g)         -130.16   -132.96   -2.80  CH4
  CO2(g)           -1.25     -2.72   -1.47  CO2
  Dolomite          0.00    -17.08  -17.08  CaMg(CO3)2
  Epsomite         -3.00     -4.74   -1.74  MgSO4:7H2O
  Gypsum            0.00     -4.55   -4.55  CaSO4:2H2O
  H2(g)           -38.71    -41.81   -3.10  H2
  H2O(g)           -1.50     -0.00    1.50  H2O
  H2S(g)         -128.54   -136.48   -7.94  H2S
  Halite           -6.68     -5.11    1.57  NaCl
  Hexahydrite      -3.17     -4.74   -1.57  MgSO4:6H2O
  Kieserite        -3.57     -4.74   -1.16  MgSO4:H2O
  Mirabilite       -4.61     -5.31   -0.71  Na2SO4:10H2O
  N2(g)            -5.97     -9.15   -3.18  N2
  NH3(g)          -58.06    -56.27    1.80  NH3
  O2(g)            -5.86     -8.75   -2.89  O2
  Sulfur          -95.76    -90.88    4.88  S
  Sylvite          -7.46     -6.56    0.90  KCl
  Thenardite       -5.96     -5.31    0.65  Na2SO4

**For a gas, SI = log10(fugacity). Fugacity = pressure * phi / 1 atm.
  For ideal gases, phi = 1.


Cell 29.

Using solution 29.	Solution after simulation 5.
Using exchange 29.	Exchange assemblage after simulation 5.
Using pure phase assemblage 29.	Pure-phase assemblage after simulation 5.

-------------------------------Phase assemblage--------------------------------

                                                      Moles in assemblage
Phase               SI  log IAP  log K(T, P)   Initial       Final       Delta

Calcite          -0.00    -8.45     -8.45    1.024e+00   1.024e+00  -2.665e-15
Dolomite          0.00   -17.08    -17.08    9.889e-01   9.889e-01   0.000e+00
Gypsum            0.00    -4.55     -4.55    9.689e-01   9.689e-01   1.443e-15

-----------------------------Exchange composition------------------------------

X                1.500e+00 mol

	                               Equiv-    Equivalent      Log 
	Species             Moles      alents      Fraction     Gamma

	CaX2              4.709e-01   9.418e-01   6.279e-01    -0.399
	MgX2              1.854e-01   3.708e-01   2.472e-01    -0.383
	NaX               1.580e-01   1.580e-01   1.053e-01    -0.103
	KX                2.933e-02   2.933e-02   1.955e-02    -0.114
	NH4X              5.012e-53   5.012e-53   3.341e-53    -0.124

-----------------------------Solution composition------------------------------

	Elements           Molality       Moles

	C                 7.728e-03   7.736e-03
	Ca                1.191e-02   1.192e-02
	Cl                4.232e-04   4.237e-04
	K                 1.246e-03   1.248e-03
	Mg                1.006e-02   1.007e-02
	N                 2.356e-05   2.359e-05
	Na                3.224e-02   3.228e-02
	S                 3.499e-02   3.503e-02

----------------------------Description of solution----------------------------

                                       pH  =   6.726      Charge balance
                                       pe  =  12.603      Adjusted to redox equilibrium
      Specific Conductance (µS/cm,  25°C)  = 6051
                          Density (g/cm³)  =   1.00197
                               Volume (L)  =   1.00450
                        Viscosity (mPa s)  =   0.90893
                        Activity of water  =   0.999
                 Ionic strength (mol/kgw)  =   9.309e-02
                       Mass of water (kg)  =   1.001e+00
                 Total alkalinity (eq/kg)  =   5.866e-03
                       Total CO2 (mol/kg)  =   7.728e-03
                         Temperature (°C)  =  25.00
                  Electrical balance (eq)  =   1.136e-03
 Percent error, 100*(Cat-|An|)/(Cat+|An|)  =   1.00
                               Iterations  =   1
                                  Total H  = 1.111453e+02
                                  Total O  = 5.573125e+01

----------------------------Distribution of species----------------------------

                                               Log       Log       Log    mole V
   Species          Molality    Activity  Molality  Activity     Gamma   cm³/mol

   H+              2.269e-07   1.880e-07    -6.644    -6.726    -0.082      0.00
   OH-             7.010e-08   5.377e-08    -7.154    -7.269    -0.115     -3.75
   H2O             5.551e+01   9.985e-01     1.744    -0.001     0.000     18.07
C(-4)         0.000e+00
   CH4             0.000e+00   0.000e+00  -132.967  -132.958     0.009     35.46
C(4)          7.728e-03
   HCO3-           5.652e-03   4.487e-03    -2.248    -2.348    -0.100     25.34
   CO2             1.872e-03   1.899e-03    -2.728    -2.721     0.006     34.79
   MgHCO3+         1.400e-04   1.084e-04    -3.854    -3.965    -0.111      5.65
   NaHCO3          5.057e-05   5.223e-05    -4.296    -4.282     0.014     17.66
   CaCO3           5.862e-06   5.989e-06    -5.232    -5.223     0.009    -14.60
   CO3-2           2.837e-06   1.119e-06    -5.547    -5.951    -0.404     -3.33
   MgCO3           2.159e-06   2.206e-06    -5.666    -5.656     0.009    -17.09
   KHCO3           1.668e-06   1.704e-06    -5.778    -5.768     0.009     21.42
   (CO2)2          5.781e-08   5.864e-08    -7.238    -7.232     0.006     68.75
   CaHCO3+         1.567e-09   1.253e-09    -8.805    -8.902    -0.097      9.83
Ca            1.191e-02
   Ca+2            7.987e-03   3.185e-03    -2.098    -2.497    -0.399    -17.45
   CaSO4           3.917e-03   3.955e-03    -2.407    -2.403     0.004      7.22
   CaCO3           5.862e-06   5.989e-06    -5.232    -5.223     0.009    -14.60
   CaHSO4+         7.933e-09   6.229e-09    -8.101    -8.206    -0.105     (0)  
   CaOH+           3.575e-09   2.808e-09    -8.447    -8.552    -0.105     (0)  
   CaHCO3+         1.567e-09   1.253e-09    -8.805    -8.902    -0.097      9.83
Cl            4.232e-04
   Cl-             4.232e-04   3.266e-04    -3.373    -3.486    -0.113     18.33
   HCl             1.930e-11   2.115e-11   -10.714   -10.675     0.040     20.36
H(0)          0.000e+00
   H2              0.000e+00   0.000e+00   -41.817   -41.807     0.010     14.99
K             1.246e-03
   K+              1.105e-03   8.504e-04    -2.957    -3.070    -0.114      9.23
   KSO4-           1.395e-04   1.152e-04    -3.855    -3.939    -0.083     25.71
   KHCO3           1.668e-06   1.704e-06    -5.778    -5.768     0.009     21.42
Mg            1.006e-02
   Mg+2            4.984e-03   2.065e-03    -2.302    -2.685    -0.383    -21.16
   MgSO4           4.611e-03   4.813e-03    -2.336    -2.318     0.019     -0.40
   Mg(SO4)2-2      3.244e-04   1.411e-04    -3.489    -3.850    -0.361     43.01
   MgHCO3+         1.400e-04   1.084e-04    -3.854    -3.965    -0.111      5.65
   MgCO3           2.159e-06   2.206e-06    -5.666    -5.656     0.009    -17.09
   MgOH+           4.948e-08   3.983e-08    -7.306    -7.400    -0.094     (0)  
N(-3)         0.000e+00
   NH4+            0.000e+00   0.000e+00   -53.624   -53.748    -0.124     18.14
   NH4SO4-         0.000e+00   0.000e+00   -54.347   -54.446    -0.098     35.51
   NH3             0.000e+00   0.000e+00   -56.276   -56.267     0.009     24.42
N(0)          1.393e-09
   N2              6.965e-10   7.116e-10    -9.157    -9.148     0.009     29.29
N(3)          1.931e-15
   NO2-            1.931e-15   1.466e-15   -14.714   -14.834    -0.120     25.22
N(5)          2.356e-05
   NO3-            2.356e-05   1.789e-05    -4.628    -4.747    -0.120     29.76
Na            3.224e-02
   Na+             2.984e-02   2.355e-02    -1.525    -1.628    -0.103     -1.11
   NaSO4-          2.347e-03   1.842e-03    -2.630    -2.735    -0.105     18.26
   NaHCO3          5.057e-05   5.223e-05    -4.296    -4.282     0.014     17.66
   Na2SO4          2.076e-08   2.115e-08    -7.683    -7.675     0.008     47.96
O(0)          3.482e-09
   O2              1.741e-09   1.779e-09    -8.759    -8.750     0.009     30.40
S(-2)         0.000e+00
   H2S             0.000e+00   0.000e+00  -129.545  -129.536     0.009     36.27
   HS-             0.000e+00   0.000e+00  -129.637  -129.752    -0.115     20.86
   S-2             0.000e+00   0.000e+00  -135.529  -135.944    -0.415     (0)  
   (H2S)2          0.000e+00   0.000e+00  -260.360  -260.350     0.009     30.09
S(6)          3.499e-02
   SO4-2           2.333e-02   8.902e-03    -1.632    -2.050    -0.418     15.13
   MgSO4           4.611e-03   4.813e-03    -2.336    -2.318     0.019     -0.40
   CaSO4           3.917e-03   3.955e-03    -2.407    -2.403     0.004      7.22
   NaSO4-          2.347e-03   1.842e-03    -2.630    -2.735    -0.105     18.26
   Mg(SO4)2-2      3.244e-04   1.411e-04    -3.489    -3.850    -0.361     43.01
   KSO4-           1.395e-04   1.152e-04    -3.855    -3.939    -0.083     25.71
   HSO4-           2.072e-07   1.627e-07    -6.684    -6.789    -0.105     40.53
   Na2SO4          2.076e-08   2.115e-08    -7.683    -7.675     0.008     47.96
   CaHSO4+         7.933e-09   6.229e-09    -8.101    -8.206    -0.105     (0)  
   NH4SO4-         0.000e+00   0.000e+00   -54.347   -54.446    -0.098     35.51

------------------------------Saturation indices-------------------------------

  Phase               SI** log IAP   log K(298 K,   1 atm)

  Anhydrite        -0.23     -4.55   -4.31  CaSO4
  Aragonite        -0.11     -8.45   -8.34  CaCO3
  Arcanite         -6.31     -8.19   -1.88  K2SO4
  Calcite          -0.00     -8.45   -8.45  CaCO3
  CH4(g)         -130.16   -132.96   -2.80  CH4
  CO2(g)           -1.25     -2.72   -1.47  CO2
  Dolomite          0.00    -17.08  -17.08  CaMg(CO3)2
  Epsomite         -3.00     -4.74   -1.74  MgSO4:7H2O
  Gypsum            0.00     -4.55   -4.55  CaSO4:2H2O
  H2(g)           -38.71    -41.81   -3.10  H2
  H2O(g)           -1.50     -0.00    1.50  H2O
  H2S(g)         -128.54   -136.48   -7.94  H2S
  Halite           -6.68     -5.11    1.57  NaCl
  Hexahydrite      -3.17     -4.74   -1.57  MgSO4:6H2O
  Kieserite        -3.57     -4.74   -1.16  MgSO4:H2O
  Mirabilite       -4.61     -5.31   -0.71  Na2SO4:10H2O
  N2(g)            -5.97     -9.15   -3.18  N2
  NH3(g)          -58.06    -56.27    1.80  NH3
  O2(g)            -5.86     -8.75   -2.89  O2
  Sulfur          -95.76    -90.88    4.88  S
  Sylvite          -7.46     -6.56    0.90  KCl
  Thenardite       -5.96     -5.31    0.65  Na2SO4

**For a gas, SI = log10(fugacity). Fugacity = pressure * phi / 1 atm.
  For ideal gases, phi = 1.


Cell 30.

Using solution 30.	Solution after simulation 5.
Using exchange 30.	Exchange assemblage after simulation 5.
Using pure phase assemblage 30.	Pure-phase assemblage after simulation 5.

-------------------------------Phase assemblage--------------------------------

                                                      Moles in assemblage
Phase               SI  log IAP  log K(T, P)   Initial       Final       Delta

Calcite          -0.00    -8.45     -8.45    1.024e+00   1.024e+00  -2.665e-15
Dolomite          0.00   -17.08    -17.08    9.889e-01   9.889e-01   0.000e+00
Gypsum            0.00    -4.55     -4.55    9.689e-01   9.689e-01   1.443e-15

-----------------------------Exchange composition------------------------------

X                1.500e+00 mol

	                               Equiv-    Equivalent      Log 
	Species             Moles      alents      Fraction     Gamma

	CaX2              4.709e-01   9.418e-01   6.279e-01    -0.399
	MgX2              1.854e-01   3.708e-01   2.472e-01    -0.383
	NaX               1.580e-01   1.580e-01   1.053e-01    -0.103
	KX                2.933e-02   2.933e-02   1.955e-02    -0.114
	NH4X              5.012e-53   5.012e-53   3.341e-53    -0.124

-----------------------------Solution composition------------------------------

	Elements           Molality       Moles

	C                 7.728e-03   7.736e-03
	Ca                1.191e-02   1.192e-02
	Cl                4.232e-04   4.237e-04
	K                 1.246e-03   1.248e-03
	Mg                1.006e-02   1.007e-02
	N                 2.356e-05   2.359e-05
	Na                3.224e-02   3.228e-02
	S                 3.499e-02   3.503e-02

----------------------------Description of solution----------------------------

                                       pH  =   6.726      Charge balance
                                       pe  =  12.603      Adjusted to redox equilibrium
      Specific Conductance (µS/cm,  25°C)  = 6051
                          Density (g/cm³)  =   1.00197
                               Volume (L)  =   1.00450
                        Viscosity (mPa s)  =   0.90893
                        Activity of water  =   0.999
                 Ionic strength (mol/kgw)  =   9.309e-02
                       Mass of water (kg)  =   1.001e+00
                 Total alkalinity (eq/kg)  =   5.866e-03
                       Total CO2 (mol/kg)  =   7.728e-03
                         Temperature (°C)  =  25.00
                  Electrical balance (eq)  =   1.136e-03
 Percent error, 100*(Cat-|An|)/(Cat+|An|)  =   1.00
                               Iterations  =   1
                                  Total H  = 1.111453e+02
                                  Total O  = 5.573125e+01

----------------------------Distribution of species----------------------------

                                               Log       Log       Log    mole V
   Species          Molality    Activity  Molality  Activity     Gamma   cm³/mol

   H+              2.269e-07   1.880e-07    -6.644    -6.726    -0.082      0.00
   OH-             7.010e-08   5.377e-08    -7.154    -7.269    -0.115     -3.75
   H2O             5.551e+01   9.985e-01     1.744    -0.001     0.000     18.07
C(-4)         0.000e+00
   CH4             0.000e+00   0.000e+00  -132.967  -132.958     0.009     35.46
C(4)          7.728e-03
   HCO3-           5.652e-03   4.487e-03    -2.248    -2.348    -0.100     25.34
   CO2             1.872e-03   1.899e-03    -2.728    -2.721     0.006     34.79
   MgHCO3+         1.400e-04   1.084e-04    -3.854    -3.965    -0.111      5.65
   NaHCO3          5.057e-05   5.223e-05    -4.296    -4.282     0.014     17.66
   CaCO3           5.862e-06   5.989e-06    -5.232    -5.223     0.009    -14.60
   CO3-2           2.837e-06   1.119e-06    -5.547    -5.951    -0.404     -3.33
   MgCO3           2.159e-06   2.206e-06    -5.666    -5.656     0.009    -17.09
   KHCO3           1.668e-06   1.704e-06    -5.778    -5.768     0.009     21.42
   (CO2)2          5.781e-08   5.864e-08    -7.238    -7.232     0.006     68.75
   CaHCO3+         1.567e-09   1.253e-09    -8.805    -8.902    -0.097      9.83
Ca            1.191e-02
   Ca+2            7.987e-03   3.185e-03    -2.098    -2.497    -0.399    -17.45
   CaSO4           3.917e-03   3.955e-03    -2.407    -2.403     0.004      7.22
   CaCO3           5.862e-06   5.989e-06    -5.232    -5.223     0.009    -14.60
   CaHSO4+         7.933e-09   6.229e-09    -8.101    -8.206    -0.105     (0)  
   CaOH+           3.575e-09   2.808e-09    -8.447    -8.552    -0.105     (0)  
   CaHCO3+         1.567e-09   1.253e-09    -8.805    -8.902    -0.097      9.83
Cl            4.232e-04
   Cl-             4.232e-04   3.266e-04    -3.373    -3.486    -0.113     18.33
   HCl             1.930e-11   2.115e-11   -10.714   -10.675     0.040     20.36
H(0)          0.000e+00
   H2              0.000e+00   0.000e+00   -41.817   -41.807     0.010     14.99
K             1.246e-03
   K+              1.105e-03   8.504e-04    -2.957    -3.070    -0.114      9.23
   KSO4-           1.395e-04   1.152e-04    -3.855    -3.939    -0.083     25.71
   KHCO3           1.668e-06   1.704e-06    -5.778    -5.768     0.009     21.42
Mg            1.006e-02
   Mg+2            4.984e-03   2.065e-03    -2.302    -2.685    -0.383    -21.16
   MgSO4           4.611e-03   4.813e-03    -2.336    -2.318     0.019     -0.40
   Mg(SO4)2-2      3.244e-04   1.411e-04    -3.489    -3.850    -0.361     43.01
   MgHCO3+         1.400e-04   1.084e-04    -3.854    -3.965    -0.111      5.65
   MgCO3           2.159e-06   2.206e-06    -5.666    -5.656     0.009    -17.09
   MgOH+           4.948e-08   3.983e-08    -7.306    -7.400    -0.094     (0)  
N(-3)         0.000e+00
   NH4+            0.000e+00   0.000e+00   -53.624   -53.748    -0.124     18.14
   NH4SO4-         0.000e+00   0.000e+00   -54.347   -54.446    -0.098     35.51
   NH3             0.000e+00   0.000e+00   -56.276   -56.267     0.009     24.42
N(0)          1.393e-09
   N2              6.965e-10   7.116e-10    -9.157    -9.148     0.009     29.29
N(3)          1.931e-15
   NO2-            1.931e-15   1.466e-15   -14.714   -14.834    -0.120     25.22
N(5)          2.356e-05
   NO3-            2.356e-05   1.789e-05    -4.628    -4.747    -0.120     29.76
Na            3.224e-02
   Na+             2.984e-02   2.355e-02    -1.525    -1.628    -0.103     -1.11
   NaSO4-          2.347e-03   1.842e-03    -2.630    -2.735    -0.105     18.26
   NaHCO3          5.057e-05   5.223e-05    -4.296    -4.282     0.014     17.66
   Na2SO4          2.076e-08   2.115e-08    -7.683    -7.675     0.008     47.96
O(0)          3.482e-09
   O2              1.741e-09   1.779e-09    -8.759    -8.750     0.009     30.40
S(-2)         0.000e+00
   H2S             0.000e+00   0.000e+00  -129.545  -129.536     0.009     36.27
   HS-             0.000e+00   0.000e+00  -129.637  -129.752    -0.115     20.86
   S-2             0.000e+00   0.000e+00  -135.529  -135.944    -0.415     (0)  
   (H2S)2          0.000e+00   0.000e+00  -260.360  -260.350     0.009     30.09
S(6)          3.499e-02
   SO4-2           2.333e-02   8.902e-03    -1.632    -2.050    -0.418     15.13
   MgSO4           4.611e-03   4.813e-03    -2.336    -2.318     0.019     -0.40
   CaSO4           3.917e-03   3.955e-03    -2.407    -2.403     0.004      7.22
   NaSO4-          2.347e-03   1.842e-03    -2.630    -2.735    -0.105     18.26
   Mg(SO4)2-2      3.244e-04   1.411e-04    -3.489    -3.850    -0.361     43.01
   KSO4-           1.395e-04   1.152e-04    -3.855    -3.939    -0.083     25.71
   HSO4-           2.072e-07   1.627e-07    -6.684    -6.789    -0.105     40.53
   Na2SO4          2.076e-08   2.115e-08    -7.683    -7.675     0.008     47.96
   CaHSO4+         7.933e-09   6.229e-09    -8.101    -8.206    -0.105     (0)  
   NH4SO4-         0.000e+00   0.000e+00   -54.347   -54.446    -0.098     35.51

------------------------------Saturation indices-------------------------------

  Phase               SI** log IAP   log K(298 K,   1 atm)

  Anhydrite        -0.23     -4.55   -4.31  CaSO4
  Aragonite        -0.11     -8.45   -8.34  CaCO3
  Arcanite         -6.31     -8.19   -1.88  K2SO4
  Calcite          -0.00     -8.45   -8.45  CaCO3
  CH4(g)         -130.16   -132.96   -2.80  CH4
  CO2(g)           -1.25     -2.72   -1.47  CO2
  Dolomite          0.00    -17.08  -17.08  CaMg(CO3)2
  Epsomite         -3.00     -4.74   -1.74  MgSO4:7H2O
  Gypsum            0.00     -4.55   -4.55  CaSO4:2H2O
  H2(g)           -38.71    -41.81   -3.10  H2
  H2O(g)           -1.50     -0.00    1.50  H2O
  H2S(g)         -128.54   -136.48   -7.94  H2S
  Halite           -6.68     -5.11    1.57  NaCl
  Hexahydrite      -3.17     -4.74   -1.57  MgSO4:6H2O
  Kieserite        -3.57     -4.74   -1.16  MgSO4:H2O
  Mirabilite       -4.61     -5.31   -0.71  Na2SO4:10H2O
  N2(g)            -5.97     -9.15   -3.18  N2
  NH3(g)          -58.06    -56.27    1.80  NH3
  O2(g)            -5.86     -8.75   -2.89  O2
  Sulfur          -95.76    -90.88    4.88  S
  Sylvite          -7.46     -6.56    0.90  KCl
  Thenardite       -5.96     -5.31    0.65  Na2SO4

**For a gas, SI = log10(fugacity). Fugacity = pressure * phi / 1 atm.
  For ideal gases, phi = 1.

------------------
End of simulation.
------------------

------------------------------------
Reading input data for simulation 6.
------------------------------------

