   Input file: empty_conc
  Output file: empty_conc.out
Database file: ../database/phreeqc.dat

------------------
Reading data base.
------------------

	SOLUTION_MASTER_SPECIES
	SOLUTION_SPECIES
	PHASES
	GAS_BINARY_PARAMETERS
	EXCHANGE_MASTER_SPECIES
	EXCHANGE_SPECIES
	SURFACE_MASTER_SPECIES
	SURFACE_SPECIES
	MEAN_GAMMAS
	RATES
	END
------------------------------------
Reading input data for simulation 1.
------------------------------------

	DATABASE ../database/phreeqc.dat
	SELECTED_OUTPUT 101
	    file                 empty_conc_101.sel
	USER_PUNCH 101
	    headings Mu SC
	    start
	10 PUNCH STR_F$(MU, 20, 12)
	20 PUNCH STR_F$(SC, 20, 10)
	    end
	SOLUTION 1  
			units   #mmol/l
			potential
WARNING: No value given for potential. Line ignored.
			pH      
WARNING: No value given for pH. Line ignored.
			pe      5.00
			pe      
WARNING: No value given for pe. Line ignored.
			density 
WARNING: No value given for density. Line ignored.
			temp    
WARNING: No value given for temperature. Line ignored.
			Na      1
			Ca      
WARNING: No value given for Ca. Line ignored.
			Cl      1 charge
			water
WARNING: No value given for water. Line ignored.
	END
-------------------------------------------
Beginning of initial solution calculations.
-------------------------------------------

Initial solution 1.	

-----------------------------Solution composition------------------------------

	Elements           Molality       Moles

	Cl                1.000e-03   1.000e-03  Charge balance
	Na                1.000e-03   1.000e-03

----------------------------Description of solution----------------------------

                                       pH  =   7.000    
                                       pe  =   5.000    
      Specific Conductance (µS/cm,  25°C)  = 122
                          Density (g/cm³)  =   0.99708
                               Volume (L)  =   1.00298
                        Viscosity (mPa s)  =   0.89026
                        Activity of water  =   1.000
                 Ionic strength (mol/kgw)  =   1.000e-03
                       Mass of water (kg)  =   1.000e+00
                 Total alkalinity (eq/kg)  =   1.417e-09
                         Temperature (°C)  =  25.00
                  Electrical balance (eq)  =  -7.745e-12
 Percent error, 100*(Cat-|An|)/(Cat+|An|)  =  -0.00
                               Iterations  =   8
                                  Total H  = 1.110124e+02
                                  Total O  = 5.550622e+01

----------------------------Distribution of species----------------------------

                                               Log       Log       Log    mole V
   Species          Molality    Activity  Molality  Activity     Gamma   cm³/mol

   OH-             1.049e-07   1.012e-07    -6.979    -6.995    -0.016     -4.11
   H+              1.035e-07   1.000e-07    -6.985    -7.000    -0.015      0.00
   H2O             5.551e+01   1.000e+00     1.744    -0.000     0.000     18.07
Cl            1.000e-03
   Cl-             1.000e-03   9.649e-04    -3.000    -3.016    -0.016     18.07
   HCl             3.321e-11   3.324e-11   -10.479   -10.478     0.000     20.36
H(0)          1.416e-27
   H2              7.078e-28   7.079e-28   -27.150   -27.150     0.000     14.99
Na            1.000e-03
   Na+             1.000e-03   9.652e-04    -3.000    -3.015    -0.015     -1.48
O(0)          1.731e-38
   O2              8.656e-39   8.658e-39   -38.063   -38.063     0.000     30.40

------------------------------Saturation indices-------------------------------

  Phase               SI** log IAP   log K(298 K,   1 atm)

  H2(g)           -24.05    -27.15   -3.10  H2
  H2O(g)           -1.50     -0.00    1.50  H2O
  Halite           -7.60     -6.03    1.57  NaCl
  O2(g)           -35.17    -38.06   -2.89  O2

**For a gas, SI = log10(fugacity). Fugacity = pressure * phi / 1 atm.
  For ideal gases, phi = 1.

------------------
End of simulation.
------------------

------------------------------------
Reading input data for simulation 2.
------------------------------------

	SOLUTION_SPREAD
	 pH	 pe	 Temperature	 Water	 Na	 Ca	 Cl	 Density	 Description
	   	   	            	      	   	   	  1	        	            
-------------------------------------------
Beginning of initial solution calculations.
-------------------------------------------

Initial solution 2.	

-----------------------------Solution composition------------------------------

	Elements           Molality       Moles

	Cl                1.000e-03   1.000e-03

----------------------------Description of solution----------------------------

                                       pH  =   7.000    
                                       pe  =   4.000    
      Specific Conductance (µS/cm,  25°C)  = 74
                          Density (g/cm³)  =   0.99706
                               Volume (L)  =   1.00298
                        Viscosity (mPa s)  =   0.89007
                        Activity of water  =   1.000
                 Ionic strength (mol/kgw)  =   5.001e-04
                       Mass of water (kg)  =   1.000e+00
                 Total alkalinity (eq/kg)  =   1.312e-09
                         Temperature (°C)  =  25.00
                  Electrical balance (eq)  =  -1.000e-03
 Percent error, 100*(Cat-|An|)/(Cat+|An|)  = -99.98
                               Iterations  =   3
                                  Total H  = 1.110124e+02
                                  Total O  = 5.550622e+01

----------------------------Distribution of species----------------------------

                                               Log       Log       Log    mole V
   Species          Molality    Activity  Molality  Activity     Gamma   cm³/mol

   OH-             1.038e-07   1.012e-07    -6.984    -6.995    -0.011     -4.12
   H+              1.025e-07   1.000e-07    -6.989    -7.000    -0.011      0.00
   H2O             5.551e+01   1.000e+00     1.744    -0.000     0.000     18.07
Cl            1.000e-03
   Cl-             1.000e-03   9.748e-04    -3.000    -3.011    -0.011     18.07
   HCl             3.356e-11   3.358e-11   -10.474   -10.474     0.000     20.36
H(0)          1.416e-25
   H2              7.079e-26   7.079e-26   -25.150   -25.150     0.000     14.99
O(0)          0.000e+00
   O2              0.000e+00   0.000e+00   -42.063   -42.063     0.000     30.40

------------------------------Saturation indices-------------------------------

  Phase               SI** log IAP   log K(298 K,   1 atm)

  H2(g)           -22.05    -25.15   -3.10  H2
  H2O(g)           -1.50     -0.00    1.50  H2O
  O2(g)           -39.17    -42.06   -2.89  O2

**For a gas, SI = log10(fugacity). Fugacity = pressure * phi / 1 atm.
  For ideal gases, phi = 1.

------------------
End of simulation.
------------------

------------------------------------
Reading input data for simulation 3.
------------------------------------

