WARNING: Database file from DATABASE keyword is used; command line argument ignored.
   Input file: ex10_pz
  Output file: ex10_pz.out
Database file: ../database/pitzer.dat

------------------
Reading data base.
------------------

WARNING: Unknown input, no keyword has been specified.
	SOLUTION_MASTER_SPECIES
	SOLUTION_SPECIES
	PHASES
	PITZER
	GAS_BINARY_PARAMETERS
	EXCHANGE_MASTER_SPECIES
	EXCHANGE_SPECIES
	SURFACE_MASTER_SPECIES
	SURFACE_SPECIES
	MEAN_GAMMAS
	END
------------------------------------
Reading input data for simulation 1.
------------------------------------

	DATABASE ../database/pitzer.dat
	SELECTED_OUTPUT 101
	    file                 ex10_pz_101.sel
	USER_PUNCH 101
	    headings Mu SC
	    start
	10 PUNCH STR_F$(MU, 20, 12)
	20 PUNCH STR_F$(SC, 20, 10)
	    end
	TITLE Example 10.--Transport with equilibrium_phases, 
	   exchange, and surface reactions
	SOLUTION 1 Brine
	        pH      5.713
	        pe      4.0    # O2(g)   -0.7
	        temp    25.
	        units   mol/kgw
	        Ca      .4655
	        Mg      .1609
	        Na      5.402
	        Cl      6.642           charge
	        C       .00396
	        S       .004725
	EQUILIBRIUM_PHASES 1
	        Dolomite        0.0     1.6
	        Calcite         0.0     0.1
	EXCHANGE 1
	        equilibrate with solution 1
	        X       1.0
	SURFACE 1
	        equilibrate solution 1
	        Hfo_w           0.07    600.    30.
	END
-----
TITLE
-----

 Example 10.--Transport with equilibrium_phases, 
   exchange, and surface reactions

-------------------------------------------
Beginning of initial solution calculations.
-------------------------------------------

Initial solution 1.	Brine

-----------------------------Solution composition------------------------------

	Elements           Molality       Moles

	C                 3.960e-03   3.960e-03
	Ca                4.655e-01   4.655e-01
	Cl                6.643e+00   6.643e+00  Charge balance
	Mg                1.609e-01   1.609e-01
	Na                5.402e+00   5.402e+00
	S                 4.725e-03   4.725e-03

----------------------------Description of solution----------------------------

                                       pH  =   5.713    
                                       pe  =   4.000    
      Specific Conductance (µS/cm,  25°C)  = 243172
                          Density (g/cm³)  =   1.21637
                               Volume (L)  =   1.13695
                        Viscosity (mPa s)  =   1.95360
                        Activity of water  =   0.725
                 Ionic strength (mol/kgw)  =   7.286e+00
                       Mass of water (kg)  =   1.000e+00
                 Total alkalinity (eq/kg)  =   2.317e-03
                       Total CO2 (mol/kg)  =   3.960e-03
                         Temperature (°C)  =  25.00
                  Electrical balance (eq)  =  -5.787e-12
 Percent error, 100*(Cat-|An|)/(Cat+|An|)  =  -0.00
                               Iterations  =  20
                         Gamma iterations  =   6
                      Osmotic coefficient  =   1.40736
                         Density of water  =   0.99704
                                  Total H  = 1.110147e+02
                                  Total O  = 5.553532e+01

----------------------------Distribution of species----------------------------

                                                    MacInnes  MacInnes
                                MacInnes       Log       Log       Log    mole V
   Species          Molality    Activity  Molality  Activity     Gamma   cm³/mol

   H+              1.914e-07   1.936e-06    -6.718    -5.713     1.005      0.00
   OH-             2.473e-08   3.790e-09    -7.607    -8.421    -0.815      6.35
   H2O             5.551e+01   7.251e-01     1.744    -0.140     0.000     18.07
C(4)          3.960e-03
   HCO3-           2.252e-03   8.431e-04    -2.647    -3.074    -0.427     29.82
   CO2             1.676e-03   4.943e-03    -2.776    -2.306     0.470     34.79
   MgCO3           2.561e-05   2.561e-05    -4.592    -4.592     0.000    -17.09
   CO3-2           6.533e-06   1.994e-08    -5.185    -7.700    -2.515      9.93
Ca            4.655e-01
   Ca+2            4.655e-01   2.482e+00    -0.332     0.395     0.727    -13.78
Cl            6.643e+00
   Cl-             6.643e+00   4.273e+00     0.822     0.631    -0.192     20.27
Mg            1.609e-01
   Mg+2            1.609e-01   1.516e+00    -0.794     0.181     0.974    -17.22
   MgCO3           2.561e-05   2.561e-05    -4.592    -4.592     0.000    -17.09
   MgOH+           1.420e-06   8.813e-07    -5.848    -6.055    -0.207     (0)  
Na            5.402e+00
   Na+             5.402e+00   1.105e+01     0.733     1.044     0.311      1.52
S(6)          4.725e-03
   SO4-2           4.725e-03   1.491e-05    -2.326    -4.826    -2.501     27.51
   HSO4-           7.459e-09   2.808e-09    -8.127    -8.552    -0.424     42.17

------------------------------Saturation indices-------------------------------

  Phase               SI** log IAP   log K(298 K,   1 atm)

  Anhydrite        -0.18     -4.43   -4.25  CaSO4
  Aragonite         0.91     -7.31   -8.22  CaCO3
  Artinite         -5.93     13.73   19.66  Mg2CO3(OH)2:3H2O
  Bischofite       -3.99      0.60    4.59  MgCl2:6H2O
  Bloedite         -5.60     -7.94   -2.35  Na2Mg(SO4)2:4H2O
  Brucite          -5.78    -16.66  -10.88  Mg(OH)2
  Burkeite        -10.32    -11.09   -0.77  Na6CO3(SO4)2
  Calcite           1.13     -7.31   -8.44  CaCO3
  CO2(g)           -0.84     -2.31   -1.47  CO2
  Dolomite          2.26    -14.83  -17.09  CaMg(CO3)2
  Epsomite         -3.78     -5.62   -1.85  MgSO4:7H2O
  Gaylussite       -4.20    -13.62   -9.42  CaNa2(CO3)2:5H2O
  Glauberite       -1.82     -7.17   -5.35  Na2Ca(SO4)2
  Gypsum           -0.11     -4.71   -4.60  CaSO4:2H2O
  H2O(g)           -1.64     -0.14    1.50  H2O
  Halite            0.09      1.67    1.58  NaCl
  Hexahydrite      -3.92     -5.48   -1.57  MgSO4:6H2O
  Huntite           1.25     11.49   10.24  CaMg3(CO3)4
  Kieserite        -4.52     -4.79   -0.27  MgSO4:H2O
  Labile_S         -4.52    -10.19   -5.67  Na4Ca(SO4)3:2H2O
  Leonhardite      -4.32     -5.20   -0.89  MgSO4:4H2O
  Magnesite         0.31     -7.52   -7.83  MgCO3
  MgCl2_2H2O      -13.39      1.16   14.56  MgCl2:2H2O
  MgCl2_4H2O       -6.09      0.88    6.98  MgCl2:4H2O
  Mirabilite       -2.90     -4.14   -1.24  Na2SO4:10H2O
  Nahcolite        -1.63    -12.37  -10.74  NaHCO3
  Natron           -6.18     -7.01   -0.82  Na2CO3:10H2O
  Nesquehonite     -2.77     -7.94   -5.17  MgCO3:3H2O
  Pentahydrite     -4.06     -5.34   -1.28  MgSO4:5H2O
  Pirssonite       -3.96    -13.20   -9.23  Na2Ca(CO3)2:2H2O
  Portlandite     -11.26    -16.45   -5.19  Ca(OH)2
  Thenardite       -2.44     -2.74   -0.30  Na2SO4
  Trona            -6.88    -18.26  -11.38  Na3H(CO3)2:2H2O

**For a gas, SI = log10(fugacity). Fugacity = pressure * phi / 1 atm.
  For ideal gases, phi = 1.

-------------------------------------------------------
Beginning of initial exchange-composition calculations.
-------------------------------------------------------

Exchange 1.	

X                1.000e+00 mol

	                               Equiv-    Equivalent      Log 
	Species             Moles      alents      Fraction     Gamma

	NaX               9.006e-01   9.006e-01   9.006e-01     0.311
	CaX2              4.081e-02   8.163e-02   8.163e-02     0.727
	MgX2              8.900e-03   1.780e-02   1.780e-02     0.974

------------------------------------------------------
Beginning of initial surface-composition calculations.
------------------------------------------------------

Surface 1.	

Diffuse Double Layer Surface-Complexation Model

Hfo           
	  2.526e-02  Surface charge, eq
	  1.354e-01  sigma, C/m²
	  2.135e-02  psi, V
	 -8.312e-01  -F*psi/RT
	  4.355e-01  exp(-F*psi/RT)
	  6.000e+02  specific area, m²/g
	  1.800e+04  m² for   3.000e+01 g


Hfo_w         
	  7.000e-02  moles
	                                   Mole                     Log
	Species               Moles    Fraction    Molality    Molality

	Hfo_wHCO3         4.284e-02       0.612   4.284e-02      -1.368
	Hfo_wOH2+         1.639e-02       0.234   1.639e-02      -1.785
	Hfo_wOMg+         8.537e-03       0.122   8.537e-03      -2.069
	Hfo_wOH           9.968e-04       0.014   9.968e-04      -3.001
	Hfo_wOCa+         7.859e-04       0.011   7.859e-04      -3.105
	Hfo_wCO3-         4.424e-04       0.006   4.424e-04      -3.354
	Hfo_wSO4-         5.493e-06       0.000   5.493e-06      -5.260
	Hfo_wO-           1.389e-06       0.000   1.389e-06      -5.857
	Hfo_wOHSO4-2      4.833e-07       0.000   4.833e-07      -6.316

-----------------------------------------
Beginning of batch-reaction calculations.
-----------------------------------------

Reaction step 1.

Using solution 1.	Brine
Using exchange 1.	Exchange assemblage after simulation 1.
Using surface 1.	
Using pure phase assemblage 1.	

-------------------------------Phase assemblage--------------------------------

                                                      Moles in assemblage
Phase               SI  log IAP  log K(T, P)   Initial       Final       Delta

Calcite           0.00    -8.44     -8.44    1.000e-01   1.006e-01   5.666e-04
Dolomite         -0.00   -17.09    -17.09    1.600e+00   1.607e+00   6.851e-03

------------------------------Surface composition------------------------------

Diffuse Double Layer Surface-Complexation Model

Hfo           
	  3.754e-02  Surface charge, eq
	  2.012e-01  sigma, C/m²
	  3.080e-02  psi, V
	 -1.199e+00  -F*psi/RT
	  3.015e-01  exp(-F*psi/RT)
	  6.000e+02  specific area, m²/g
	  1.800e+04  m² for   3.000e+01 g


Hfo_w         
	  7.000e-02  moles
	                                   Mole                     Log
	Species               Moles    Fraction    Molality    Molality

	Hfo_wOH2+         3.561e-02       0.509   3.562e-02      -1.448
	Hfo_wHCO3         3.110e-02       0.444   3.110e-02      -1.507
	Hfo_wOMg+         1.931e-03       0.028   1.932e-03      -2.714
	Hfo_wOH           1.011e-03       0.014   1.011e-03      -2.995
	Hfo_wOCa+         1.752e-04       0.003   1.752e-04      -3.756
	Hfo_wCO3-         1.499e-04       0.002   1.499e-04      -3.824
	Hfo_wSO4-         2.504e-05       0.000   2.505e-05      -4.601
	Hfo_wOHSO4-2      1.029e-06       0.000   1.029e-06      -5.988
	Hfo_wO-           6.574e-07       0.000   6.576e-07      -6.182

-----------------------------Exchange composition------------------------------

X                1.000e+00 mol

	                               Equiv-    Equivalent      Log 
	Species             Moles      alents      Fraction     Gamma

	NaX               9.015e-01   9.015e-01   9.015e-01     0.310
	CaX2              4.035e-02   8.069e-02   8.069e-02     0.725
	MgX2              8.906e-03   1.781e-02   1.781e-02     0.974

-----------------------------Solution composition------------------------------

	Elements           Molality       Moles

	C                 1.727e-03   1.727e-03
	Ca                4.593e-01   4.592e-01
	Cl                6.645e+00   6.643e+00
	Mg                1.607e-01   1.606e-01
	Na                5.402e+00   5.401e+00
	S                 4.706e-03   4.705e-03

----------------------------Description of solution----------------------------

                                       pH  =   5.222      Charge balance
                                       pe  =   4.000      Adjusted to redox equilibrium
      Specific Conductance (µS/cm,  25°C)  = 243407
                          Density (g/cm³)  =   1.21605
                               Volume (L)  =   1.13671
                        Viscosity (mPa s)  =   1.95015
                        Activity of water  =   0.725
                 Ionic strength (mol/kgw)  =   7.273e+00
                       Mass of water (kg)  =   9.998e-01
                 Total alkalinity (eq/kg)  =   5.272e-04
                       Total CO2 (mol/kg)  =   1.727e-03
                         Temperature (°C)  =  25.00
                  Electrical balance (eq)  =  -1.228e-02
 Percent error, 100*(Cat-|An|)/(Cat+|An|)  =  -0.09
                               Iterations  =  10
                         Gamma iterations  =   3
                      Osmotic coefficient  =   1.40621
                         Density of water  =   0.99704
                                  Total H  = 1.109880e+02
                                  Total O  = 5.551653e+01

----------------------------Distribution of species----------------------------

                                                    MacInnes  MacInnes
                                MacInnes       Log       Log       Log    mole V
   Species          Molality    Activity  Molality  Activity     Gamma   cm³/mol

   H+              5.933e-07   5.992e-06    -6.227    -5.222     1.004      0.00
   OH-             7.937e-09   1.225e-09    -8.100    -8.912    -0.811      6.33
   H2O             5.551e+01   7.254e-01     1.744    -0.139     0.000     18.07
C(4)          1.727e-03
   CO2             1.202e-03   3.538e-03    -2.920    -2.451     0.469     34.79
   HCO3-           5.225e-04   1.951e-04    -3.282    -3.710    -0.428     29.82
   MgCO3           1.910e-06   1.910e-06    -5.719    -5.719     0.000    -17.09
   CO3-2           4.836e-07   1.491e-09    -6.316    -8.827    -2.511      9.91
Ca            4.593e-01
   Ca+2            4.593e-01   2.439e+00    -0.338     0.387     0.725    -13.79
Cl            6.645e+00
   Cl-             6.645e+00   4.271e+00     0.822     0.631    -0.192     20.27
Mg            1.607e-01
   Mg+2            1.607e-01   1.512e+00    -0.794     0.179     0.974    -17.22
   MgCO3           1.910e-06   1.910e-06    -5.719    -5.719     0.000    -17.09
   MgOH+           4.577e-07   2.841e-07    -6.339    -6.547    -0.207     (0)  
Na            5.402e+00
   Na+             5.402e+00   1.103e+01     0.733     1.043     0.310      1.52
S(6)          4.706e-03
   SO4-2           4.706e-03   1.500e-05    -2.327    -4.824    -2.496     27.50
   HSO4-           2.323e-08   8.741e-09    -7.634    -8.058    -0.424     42.17

------------------------------Saturation indices-------------------------------

  Phase               SI** log IAP   log K(298 K,   1 atm)

  Anhydrite        -0.19     -4.44   -4.25  CaSO4
  Aragonite        -0.22     -8.44   -8.22  CaCO3
  Artinite         -8.04     11.62   19.66  Mg2CO3(OH)2:3H2O
  Bischofite       -3.99      0.60    4.59  MgCl2:6H2O
  Bloedite         -5.59     -7.94   -2.35  Na2Mg(SO4)2:4H2O
  Brucite          -6.76    -17.64  -10.88  Mg(OH)2
  Burkeite        -11.45    -12.22   -0.77  Na6CO3(SO4)2
  Calcite           0.00     -8.44   -8.44  CaCO3
  CO2(g)           -0.99     -2.45   -1.47  CO2
  Dolomite         -0.00    -17.09  -17.09  CaMg(CO3)2
  Epsomite         -3.77     -5.62   -1.85  MgSO4:7H2O
  Gaylussite       -6.46    -15.88   -9.42  CaNa2(CO3)2:5H2O
  Glauberite       -1.83     -7.18   -5.35  Na2Ca(SO4)2
  Gypsum           -0.11     -4.72   -4.60  CaSO4:2H2O
  H2O(g)           -1.64     -0.14    1.50  H2O
  Halite            0.09      1.67    1.58  NaCl
  Hexahydrite      -3.91     -5.48   -1.57  MgSO4:6H2O
  Huntite          -3.27      6.98   10.24  CaMg3(CO3)4
  Kieserite        -4.52     -4.78   -0.27  MgSO4:H2O
  Labile_S         -4.52    -10.19   -5.67  Na4Ca(SO4)3:2H2O
  Leonhardite      -4.32     -5.20   -0.89  MgSO4:4H2O
  Magnesite        -0.81     -8.65   -7.83  MgCO3
  MgCl2_2H2O      -13.40      1.16   14.56  MgCl2:2H2O
  MgCl2_4H2O       -6.10      0.88    6.98  MgCl2:4H2O
  Mirabilite       -2.89     -4.13   -1.24  Na2SO4:10H2O
  Nahcolite        -2.26    -13.01  -10.74  NaHCO3
  Natron           -7.31     -8.14   -0.82  Na2CO3:10H2O
  Nesquehonite     -3.90     -9.07   -5.17  MgCO3:3H2O
  Pentahydrite     -4.06     -5.34   -1.28  MgSO4:5H2O
  Pirssonite       -6.23    -15.46   -9.23  Na2Ca(CO3)2:2H2O
  Portlandite     -12.25    -17.44   -5.19  Ca(OH)2
  Thenardite       -2.44     -2.74   -0.30  Na2SO4
  Trona            -8.64    -20.03  -11.38  Na3H(CO3)2:2H2O

**For a gas, SI = log10(fugacity). Fugacity = pressure * phi / 1 atm.
  For ideal gases, phi = 1.

------------------
End of simulation.
------------------

------------------------------------
Reading input data for simulation 2.
------------------------------------

	SOLUTION 0 20 x precipitation
	        pH      4.6
	        pe      4.0     # O2(g)   -0.7
	        temp    25.
	        units   mmol/kgw
	        Ca      .191625
	        Mg      .035797
	        Na      .122668
	        Cl      .133704
	        C       .01096
	        S       .235153         charge
	EQUILIBRIUM_PHASES 0
	        Dolomite        0.0     1.6
	        Calcite         0.0     0.1
	        CO2(g)          -1.5    10.
	SAVE solution 0
	END
-------------------------------------------
Beginning of initial solution calculations.
-------------------------------------------

Initial solution 0.	20 x precipitation

-----------------------------Solution composition------------------------------

	Elements           Molality       Moles

	C                 1.096e-05   1.096e-05
	Ca                1.916e-04   1.916e-04
	Cl                1.337e-04   1.337e-04
	Mg                3.580e-05   3.580e-05
	Na                1.227e-04   1.227e-04
	S                 2.351e-04   2.351e-04  Charge balance

----------------------------Description of solution----------------------------

                                       pH  =   4.600    
                                       pe  =   4.000    
      Specific Conductance (µS/cm,  25°C)  = 82
                          Density (g/cm³)  =   0.99708
                               Volume (L)  =   1.00297
                        Viscosity (mPa s)  =   0.89052
                        Activity of water  =   1.000
                 Ionic strength (mol/kgw)  =   1.066e-03
                       Mass of water (kg)  =   1.000e+00
                 Total alkalinity (eq/kg)  =  -2.640e-05
                       Total CO2 (mol/kg)  =   1.096e-05
                         Temperature (°C)  =  25.00
                  Electrical balance (eq)  =   6.224e-14
 Percent error, 100*(Cat-|An|)/(Cat+|An|)  =   0.00
                               Iterations  =   8
                         Gamma iterations  =   3
                      Osmotic coefficient  =   0.96049
                         Density of water  =   0.99704
                                  Total H  = 1.110125e+02
                                  Total O  = 5.550718e+01

----------------------------Distribution of species----------------------------

                                                    MacInnes  MacInnes
                                MacInnes       Log       Log       Log    mole V
   Species          Molality    Activity  Molality  Activity     Gamma   cm³/mol

   H+              2.610e-05   2.512e-05    -4.583    -4.600    -0.017      0.00
   OH-             4.191e-10   4.029e-10    -9.378    -9.395    -0.017     -4.11
   H2O             5.551e+01   1.000e+00     1.744    -0.000     0.000     18.07
C(4)          1.096e-05
   CO2             1.076e-05   1.076e-05    -4.968    -4.968     0.000     34.79
   HCO3-           2.020e-07   1.951e-07    -6.695    -6.710    -0.015     23.55
   CO3-2           4.121e-13   3.557e-13   -12.385   -12.449    -0.064     -4.89
   MgCO3           9.197e-15   9.197e-15   -14.036   -14.036     0.000    -17.09
Ca            1.916e-04
   Ca+2            1.916e-04   1.617e-04    -3.718    -3.791    -0.074    -18.14
Cl            1.337e-04
   Cl-             1.337e-04   1.289e-04    -3.874    -3.890    -0.016     18.08
Mg            3.580e-05
   Mg+2            3.580e-05   3.051e-05    -4.446    -4.515    -0.069    -21.82
   MgOH+           1.959e-12   1.886e-12   -11.708   -11.724    -0.017     (0)  
   MgCO3           9.197e-15   9.197e-15   -14.036   -14.036     0.000    -17.09
Na            1.227e-04
   Na+             1.227e-04   1.181e-04    -3.911    -3.928    -0.017     -1.48
S(6)          2.351e-04
   SO4-2           2.346e-04   1.989e-04    -3.630    -3.701    -0.072     14.53
   HSO4-           5.036e-07   4.857e-07    -6.298    -6.314    -0.016     40.28

------------------------------Saturation indices-------------------------------

  Phase               SI** log IAP   log K(298 K,   1 atm)

  Anhydrite        -3.24     -7.49   -4.25  CaSO4
  Aragonite        -8.02    -16.24   -8.22  CaCO3
  Artinite        -21.60     -1.94   19.66  Mg2CO3(OH)2:3H2O
  Bischofite      -16.89    -12.30    4.59  MgCl2:6H2O
  Bloedite        -17.43    -19.77   -2.35  Na2Mg(SO4)2:4H2O
  Brucite         -12.43    -23.31  -10.88  Mg(OH)2
  Burkeite        -42.65    -43.42   -0.77  Na6CO3(SO4)2
  Calcite          -7.80    -16.24   -8.44  CaCO3
  CO2(g)           -3.50     -4.97   -1.47  CO2
  Dolomite        -16.12    -33.20  -17.09  CaMg(CO3)2
  Epsomite         -6.37     -8.22   -1.85  MgSO4:7H2O
  Gaylussite      -27.12    -36.54   -9.42  CaNa2(CO3)2:5H2O
  Glauberite      -13.70    -19.05   -5.35  Na2Ca(SO4)2
  Gypsum           -2.89     -7.49   -4.60  CaSO4:2H2O
  H2O(g)           -1.50     -0.00    1.50  H2O
  Halite           -9.40     -7.82    1.58  NaCl
  Hexahydrite      -6.65     -8.22   -1.57  MgSO4:6H2O
  Huntite         -36.02    -25.78   10.24  CaMg3(CO3)4
  Kieserite        -7.95     -8.22   -0.27  MgSO4:H2O
  Labile_S        -24.93    -30.61   -5.67  Na4Ca(SO4)3:2H2O
  Leonhardite      -7.33     -8.22   -0.89  MgSO4:4H2O
  Magnesite        -9.13    -16.96   -7.83  MgCO3
  MgCl2_2H2O      -26.85    -12.30   14.56  MgCl2:2H2O
  MgCl2_4H2O      -19.27    -12.30    6.98  MgCl2:4H2O
  Mirabilite      -10.32    -11.56   -1.24  Na2SO4:10H2O
  Nahcolite       -10.23    -20.98  -10.74  NaHCO3
  Natron          -19.48    -20.30   -0.82  Na2CO3:10H2O
  Nesquehonite    -11.80    -16.96   -5.17  MgCO3:3H2O
  Pentahydrite     -6.93     -8.22   -1.28  MgSO4:5H2O
  Pirssonite      -27.31    -36.54   -9.23  Na2Ca(CO3)2:2H2O
  Portlandite     -17.39    -22.58   -5.19  Ca(OH)2
  Thenardite      -11.26    -11.56   -0.30  Na2SO4
  Trona           -29.90    -41.28  -11.38  Na3H(CO3)2:2H2O

**For a gas, SI = log10(fugacity). Fugacity = pressure * phi / 1 atm.
  For ideal gases, phi = 1.

-----------------------------------------
Beginning of batch-reaction calculations.
-----------------------------------------

Reaction step 1.

Using solution 0.	20 x precipitation
Using pure phase assemblage 0.	

-------------------------------Phase assemblage--------------------------------

                                                      Moles in assemblage
Phase               SI  log IAP  log K(T, P)   Initial       Final       Delta

CO2(g)           -1.50    -2.97     -1.47    1.000e+01   9.996e+00  -4.054e-03
Calcite           0.00    -8.44     -8.44    1.000e-01   9.943e-02  -5.727e-04
Dolomite          0.00   -17.09    -17.09    1.600e+00   1.599e+00  -1.222e-03

-----------------------------Solution composition------------------------------

	Elements           Molality       Moles

	C                 7.082e-03   7.082e-03
	Ca                1.986e-03   1.986e-03
	Cl                1.337e-04   1.337e-04
	Mg                1.258e-03   1.258e-03
	Na                1.227e-04   1.227e-04
	S                 2.351e-04   2.351e-04

----------------------------Description of solution----------------------------

                                       pH  =   7.041      Charge balance
                                       pe  =   4.000      Adjusted to redox equilibrium
      Specific Conductance (µS/cm,  25°C)  = 620
                          Density (g/cm³)  =   0.99747
                               Volume (L)  =   1.00304
                        Viscosity (mPa s)  =   0.89328
                        Activity of water  =   1.000
                 Ionic strength (mol/kgw)  =   1.009e-02
                       Mass of water (kg)  =   9.999e-01
                 Total alkalinity (eq/kg)  =   6.007e-03
                       Total CO2 (mol/kg)  =   7.082e-03
                         Temperature (°C)  =  25.00
                  Electrical balance (eq)  =   1.087e-13
 Percent error, 100*(Cat-|An|)/(Cat+|An|)  =   0.00
                               Iterations  =  13
                         Gamma iterations  =   3
                      Osmotic coefficient  =   0.94062
                         Density of water  =   0.99704
                                  Total H  = 1.110125e+02
                                  Total O  = 5.552434e+01

----------------------------Distribution of species----------------------------

                                                    MacInnes  MacInnes
                                MacInnes       Log       Log       Log    mole V
   Species          Molality    Activity  Molality  Activity     Gamma   cm³/mol

   OH-             1.263e-07   1.113e-07    -6.899    -6.954    -0.055     -4.03
   H+              1.015e-07   9.093e-08    -6.994    -7.041    -0.048      0.00
   H2O             5.551e+01   9.998e-01     1.744    -0.000     0.000     18.07
C(4)          7.082e-03
   HCO3-           5.994e-03   5.425e-03    -2.222    -2.266    -0.043     24.23
   CO2             1.082e-03   1.083e-03    -2.966    -2.965     0.001     34.79
   CO3-2           4.323e-06   2.732e-06    -5.364    -5.564    -0.199     -4.54
   MgCO3           1.910e-06   1.910e-06    -5.719    -5.719     0.000    -17.09
Ca            1.986e-03
   Ca+2            1.986e-03   1.331e-03    -2.702    -2.876    -0.174    -17.93
Cl            1.337e-04
   Cl-             1.337e-04   1.204e-04    -3.874    -3.919    -0.045     18.14
Mg            1.258e-03
   Mg+2            1.256e-03   8.250e-04    -2.901    -3.084    -0.182    -21.61
   MgCO3           1.910e-06   1.910e-06    -5.719    -5.719     0.000    -17.09
   MgOH+           1.572e-08   1.408e-08    -7.804    -7.851    -0.048     (0)  
Na            1.227e-04
   Na+             1.227e-04   1.142e-04    -3.911    -3.942    -0.031     -1.38
S(6)          2.351e-04
   SO4-2           2.351e-04   1.309e-04    -3.629    -3.883    -0.254     14.89
   HSO4-           1.279e-09   1.158e-09    -8.893    -8.936    -0.043     40.34

------------------------------Saturation indices-------------------------------

  Phase               SI** log IAP   log K(298 K,   1 atm)

  Anhydrite        -2.51     -6.76   -4.25  CaSO4
  Aragonite        -0.22     -8.44   -8.22  CaCO3
  Artinite         -6.97     12.69   19.66  Mg2CO3(OH)2:3H2O
  Bischofite      -15.52    -10.92    4.59  MgCl2:6H2O
  Bloedite        -16.39    -18.73   -2.35  Na2Mg(SO4)2:4H2O
  Brucite          -6.11    -16.99  -10.88  Mg(OH)2
  Burkeite        -36.21    -36.98   -0.77  Na6CO3(SO4)2
  Calcite           0.00     -8.44   -8.44  CaCO3
  CO2(g)           -1.50     -2.97   -1.47  CO2	 Pressure   0.0 atm, phi 1.000
  Dolomite          0.00    -17.09  -17.09  CaMg(CO3)2
  Epsomite         -5.12     -6.97   -1.85  MgSO4:7H2O
  Gaylussite      -12.47    -21.89   -9.42  CaNa2(CO3)2:5H2O
  Glauberite      -13.18    -18.53   -5.35  Na2Ca(SO4)2
  Gypsum           -2.16     -6.76   -4.60  CaSO4:2H2O
  H2O(g)           -1.50     -0.00    1.50  H2O
  Halite           -9.44     -7.86    1.58  NaCl
  Hexahydrite      -5.40     -6.97   -1.57  MgSO4:6H2O
  Huntite          -3.27      6.98   10.24  CaMg3(CO3)4
  Kieserite        -6.70     -6.97   -0.27  MgSO4:H2O
  Labile_S        -24.62    -30.29   -5.67  Na4Ca(SO4)3:2H2O
  Leonhardite      -6.08     -6.97   -0.89  MgSO4:4H2O
  Magnesite        -0.81     -8.65   -7.83  MgCO3
  MgCl2_2H2O      -25.48    -10.92   14.56  MgCl2:2H2O
  MgCl2_4H2O      -17.90    -10.92    6.98  MgCl2:4H2O
  Mirabilite      -10.53    -11.77   -1.24  Na2SO4:10H2O
  Nahcolite        -5.81    -16.55  -10.74  NaHCO3
  Natron          -12.62    -13.45   -0.82  Na2CO3:10H2O
  Nesquehonite     -3.48     -8.65   -5.17  MgCO3:3H2O
  Pentahydrite     -5.68     -6.97   -1.28  MgSO4:5H2O
  Pirssonite      -12.65    -21.89   -9.23  Na2Ca(CO3)2:2H2O
  Portlandite     -11.59    -16.78   -5.19  Ca(OH)2
  Thenardite      -11.47    -11.77   -0.30  Na2SO4
  Trona           -18.61    -30.00  -11.38  Na3H(CO3)2:2H2O

**For a gas, SI = log10(fugacity). Fugacity = pressure * phi / 1 atm.
  For ideal gases, phi = 1.

------------------
End of simulation.
------------------

------------------------------------
Reading input data for simulation 3.
------------------------------------

	SURFACE_SPECIES
	        Hfo_wOH + Mg+2 = Hfo_wOMg+ + H+
	        log_k -15.
	        Hfo_wOH + Ca+2 = Hfo_wOCa+ + H+
	        log_k -15.
	PRINT
		status false
	ADVECTION
	        cells 1
	        shifts 200
	SELECTED_OUTPUT
	        file ex10_pz.pun
	        totals Ca Mg Na Cl C S # As
	END
------------------------------------
Beginning of advection calculations.
------------------------------------

Beginning of advection time step 1, cumulative pore volumes 1.000000.

Cell 1.

Using solution 1.	Solution after simulation 2.
Using exchange 1.	Exchange assemblage after simulation 1.
Using surface 1.	
Using pure phase assemblage 1.	

-------------------------------Phase assemblage--------------------------------

                                                      Moles in assemblage
Phase               SI  log IAP  log K(T, P)   Initial       Final       Delta

Calcite           0.00    -8.44     -8.44    1.000e-01   9.465e-02  -5.353e-03
Dolomite          0.00   -17.09    -17.09    1.600e+00   1.597e+00  -3.215e-03

------------------------------Surface composition------------------------------

Diffuse Double Layer Surface-Complexation Model

Hfo           
	 -3.530e-03  Surface charge, eq
	 -1.893e-02  sigma, C/m²
	 -4.006e-02  psi, V
	  1.559e+00  -F*psi/RT
	  4.755e+00  exp(-F*psi/RT)
	  6.000e+02  specific area, m²/g
	  1.800e+04  m² for   3.000e+01 g


Hfo_w         
	  7.000e-02  moles
	                                   Mole                     Log
	Species               Moles    Fraction    Molality    Molality

	Hfo_wHCO3         3.167e-02       0.452   3.168e-02      -1.499
	Hfo_wOH           1.775e-02       0.254   1.775e-02      -1.751
	Hfo_wCO3-         1.120e-02       0.160   1.121e-02      -1.951
	Hfo_wOH2+         8.522e-03       0.122   8.523e-03      -2.069
	Hfo_wO-           8.471e-04       0.012   8.472e-04      -3.072
	Hfo_wOHSO4-2      5.208e-07       0.000   5.209e-07      -6.283
	Hfo_wSO4-         1.255e-07       0.000   1.255e-07      -6.901
	Hfo_wOCa+         3.717e-13       0.000   3.717e-13     -12.430
	Hfo_wOMg+         2.304e-13       0.000   2.304e-13     -12.637

-----------------------------Exchange composition------------------------------

X                1.000e+00 mol

	                               Equiv-    Equivalent      Log 
	Species             Moles      alents      Fraction     Gamma

	NaX               8.521e-01   8.521e-01   8.521e-01    -0.072
	CaX2              5.210e-02   1.042e-01   1.042e-01    -0.373
	MgX2              2.187e-02   4.374e-02   4.374e-02    -0.404

-----------------------------Solution composition------------------------------

	Elements           Molality       Moles

	C                 1.927e-02   1.927e-02
	Ca                5.382e-05   5.382e-05
	Cl                1.337e-04   1.337e-04
	Mg                3.773e-05   3.772e-05
	Na                4.864e-02   4.864e-02
	S                 2.405e-04   2.404e-04

----------------------------Description of solution----------------------------

                                       pH  =   8.286      Charge balance
                                       pe  =   4.000      Adjusted to redox equilibrium
      Specific Conductance (µS/cm,  25°C)  = 2932
                          Density (g/cm³)  =   0.99895
                               Volume (L)  =   1.00330
                        Viscosity (mPa s)  =   0.89725
                        Activity of water  =   0.999
                 Ionic strength (mol/kgw)  =   3.510e-02
                       Mass of water (kg)  =   9.999e-01
                 Total alkalinity (eq/kg)  =   1.942e-02
                       Total CO2 (mol/kg)  =   1.927e-02
                         Temperature (°C)  =  25.00
                  Electrical balance (eq)  =   2.879e-02
 Percent error, 100*(Cat-|An|)/(Cat+|An|)  =  41.83
                               Iterations  =  23
                         Gamma iterations  =   6
                      Osmotic coefficient  =   0.95782
                         Density of water  =   0.99704
                                  Total H  = 1.110226e+02
                                  Total O  = 5.556051e+01

----------------------------Distribution of species----------------------------

                                                    MacInnes  MacInnes
                                MacInnes       Log       Log       Log    mole V
   Species          Molality    Activity  Molality  Activity     Gamma   cm³/mol

   OH-             2.339e-06   1.953e-06    -5.631    -5.709    -0.078     -3.92
   H+              6.504e-09   5.177e-09    -8.187    -8.286    -0.099      0.00
   H2O             5.551e+01   9.988e-01     1.744    -0.001     0.000     18.07
C(4)          1.927e-02
   HCO3-           1.872e-02   1.803e-02    -1.728    -1.744    -0.016     24.74
   CO3-2           3.445e-04   1.595e-04    -3.463    -3.797    -0.334     -4.09
   CO2             2.035e-04   2.052e-04    -3.691    -3.688     0.004     34.79
   MgCO3           1.910e-06   1.910e-06    -5.719    -5.719     0.000    -17.09
Ca            5.382e-05
   Ca+2            5.382e-05   2.279e-05    -4.269    -4.642    -0.373    -17.70
Cl            1.337e-04
   Cl-             1.337e-04   1.120e-04    -3.874    -3.951    -0.077     18.22
Mg            3.773e-05
   Mg+2            3.581e-05   1.413e-05    -4.446    -4.850    -0.404    -21.39
   MgCO3           1.910e-06   1.910e-06    -5.719    -5.719     0.000    -17.09
   MgOH+           5.334e-09   4.232e-09    -8.273    -8.373    -0.101     (0)  
Na            4.864e-02
   Na+             4.864e-02   4.125e-02    -1.313    -1.385    -0.072     -1.26
S(6)          2.405e-04
   SO4-2           2.405e-04   1.076e-04    -3.619    -3.968    -0.349     15.33
   HSO4-           6.440e-11   5.416e-11   -10.191   -10.266    -0.075     40.42

------------------------------Saturation indices-------------------------------

  Phase               SI** log IAP   log K(298 K,   1 atm)

  Anhydrite        -4.36     -8.61   -4.25  CaSO4
  Aragonite        -0.22     -8.44   -8.22  CaCO3
  Artinite         -6.25     13.41   19.66  Mg2CO3(OH)2:3H2O
  Bischofite      -17.35    -12.75    4.59  MgCl2:6H2O
  Bloedite        -13.21    -15.56   -2.35  Na2Mg(SO4)2:4H2O
  Brucite          -5.39    -16.27  -10.88  Mg(OH)2
  Burkeite        -19.27    -20.04   -0.77  Na6CO3(SO4)2
  Calcite           0.00     -8.44   -8.44  CaCO3
  CO2(g)           -2.22     -3.69   -1.47  CO2
  Dolomite          0.00    -17.09  -17.09  CaMg(CO3)2
  Epsomite         -6.97     -8.82   -1.85  MgSO4:7H2O
  Gaylussite       -5.59    -15.01   -9.42  CaNa2(CO3)2:5H2O
  Glauberite      -10.00    -15.35   -5.35  Na2Ca(SO4)2
  Gypsum           -4.01     -8.61   -4.60  CaSO4:2H2O
  H2O(g)           -1.50     -0.00    1.50  H2O
  Halite           -6.92     -5.34    1.58  NaCl
  Hexahydrite      -7.25     -8.82   -1.57  MgSO4:6H2O
  Huntite          -3.27      6.98   10.24  CaMg3(CO3)4
  Kieserite        -8.55     -8.82   -0.27  MgSO4:H2O
  Labile_S        -16.41    -22.09   -5.67  Na4Ca(SO4)3:2H2O
  Leonhardite      -7.93     -8.82   -0.89  MgSO4:4H2O
  Magnesite        -0.81     -8.65   -7.83  MgCO3
  MgCl2_2H2O      -27.31    -12.75   14.56  MgCl2:2H2O
  MgCl2_4H2O      -19.73    -12.75    6.98  MgCl2:4H2O
  Mirabilite       -5.50     -6.74   -1.24  Na2SO4:10H2O
  Nahcolite        -2.73    -13.47  -10.74  NaHCO3
  Natron           -5.75     -6.57   -0.82  Na2CO3:10H2O
  Nesquehonite     -3.48     -8.65   -5.17  MgCO3:3H2O
  Pentahydrite     -7.54     -8.82   -1.28  MgSO4:5H2O
  Pirssonite       -5.77    -15.01   -9.23  Na2Ca(CO3)2:2H2O
  Portlandite     -10.87    -16.06   -5.19  Ca(OH)2
  Thenardite       -6.44     -6.74   -0.30  Na2SO4
  Trona            -8.65    -20.04  -11.38  Na3H(CO3)2:2H2O

**For a gas, SI = log10(fugacity). Fugacity = pressure * phi / 1 atm.
  For ideal gases, phi = 1.

Beginning of advection time step 2, cumulative pore volumes 2.000000.

Cell 1.

Using solution 1.	Solution after simulation 2.
Using exchange 1.	Exchange assemblage after simulation 3.
Using surface 1.	
Using pure phase assemblage 1.	Pure-phase assemblage after simulation 3.

-------------------------------Phase assemblage--------------------------------

                                                      Moles in assemblage
Phase               SI  log IAP  log K(T, P)   Initial       Final       Delta

Calcite           0.00    -8.44     -8.44    9.465e-02   9.075e-02  -3.899e-03
Dolomite          0.00   -17.09    -17.09    1.597e+00   1.594e+00  -2.885e-03

------------------------------Surface composition------------------------------

Diffuse Double Layer Surface-Complexation Model

Hfo           
	 -4.248e-03  Surface charge, eq
	 -2.277e-02  sigma, C/m²
	 -5.182e-02  psi, V
	  2.017e+00  -F*psi/RT
	  7.517e+00  exp(-F*psi/RT)
	  6.000e+02  specific area, m²/g
	  1.800e+04  m² for   3.000e+01 g


Hfo_w         
	  7.000e-02  moles
	                                   Mole                     Log
	Species               Moles    Fraction    Molality    Molality

	Hfo_wHCO3         2.429e-02       0.347   2.429e-02      -1.614
	Hfo_wOH           2.407e-02       0.344   2.407e-02      -1.618
	Hfo_wCO3-         1.142e-02       0.163   1.142e-02      -1.942
	Hfo_wOH2+         8.696e-03       0.124   8.698e-03      -2.061
	Hfo_wO-           1.526e-03       0.022   1.527e-03      -2.816
	Hfo_wOHSO4-2      2.974e-07       0.000   2.974e-07      -6.527
	Hfo_wSO4-         5.389e-08       0.000   5.390e-08      -7.268
	Hfo_wOCa+         6.703e-13       0.000   6.705e-13     -12.174
	Hfo_wOMg+         4.156e-13       0.000   4.156e-13     -12.381

-----------------------------Exchange composition------------------------------

X                1.000e+00 mol

	                               Equiv-    Equivalent      Log 
	Species             Moles      alents      Fraction     Gamma

	NaX               8.263e-01   8.263e-01   8.263e-01    -0.051
	CaX2              6.085e-02   1.217e-01   1.217e-01    -0.317
	MgX2              2.600e-02   5.200e-02   5.200e-02    -0.355

-----------------------------Solution composition------------------------------

	Elements           Molality       Moles

	C                 2.393e-02   2.392e-02
	Ca                1.893e-05   1.893e-05
	Cl                1.337e-04   1.337e-04
	Mg                1.473e-05   1.473e-05
	Na                2.589e-02   2.588e-02
	S                 2.354e-04   2.354e-04

----------------------------Description of solution----------------------------

                                       pH  =   8.608      Charge balance
                                       pe  =   4.000      Adjusted to redox equilibrium
      Specific Conductance (µS/cm,  25°C)  = 2208
                          Density (g/cm³)  =   0.99858
                               Volume (L)  =   1.00330
                        Viscosity (mPa s)  =   0.89387
                        Activity of water  =   0.999
                 Ionic strength (mol/kgw)  =   2.667e-02
                       Mass of water (kg)  =   9.998e-01
                 Total alkalinity (eq/kg)  =   2.463e-02
                       Total CO2 (mol/kg)  =   2.393e-02
                         Temperature (°C)  =  25.00
                  Electrical balance (eq)  =   7.175e-04
 Percent error, 100*(Cat-|An|)/(Cat+|An|)  =   1.40
                               Iterations  =  23
                         Gamma iterations  =   6
                      Osmotic coefficient  =   0.96616
                         Density of water  =   0.99704
                                  Total H  = 1.110132e+02
                                  Total O  = 5.556769e+01

----------------------------Distribution of species----------------------------

                                                    MacInnes  MacInnes
                                MacInnes       Log       Log       Log    mole V
   Species          Molality    Activity  Molality  Activity     Gamma   cm³/mol

   OH-             4.822e-06   4.103e-06    -5.317    -5.387    -0.070     -3.96
   H+              3.049e-09   2.465e-09    -8.516    -8.608    -0.092      0.00
   H2O             5.551e+01   9.991e-01     1.744    -0.000     0.000     18.07
C(4)          2.393e-02
   HCO3-           2.299e-02   2.143e-02    -1.638    -1.669    -0.031     24.62
   CO3-2           8.138e-04   3.981e-04    -3.090    -3.400    -0.311     -4.22
   CO2             1.155e-04   1.161e-04    -3.937    -3.935     0.002     34.79
   MgCO3           1.910e-06   1.910e-06    -5.719    -5.719     0.000    -17.09
Ca            1.893e-05
   Ca+2            1.893e-05   9.132e-06    -4.723    -5.039    -0.317    -17.76
Cl            1.337e-04
   Cl-             1.337e-04   1.141e-04    -3.874    -3.943    -0.069     18.20
Mg            1.473e-05
   Mg+2            1.282e-05   5.661e-06    -4.892    -5.247    -0.355    -21.45
   MgCO3           1.910e-06   1.910e-06    -5.719    -5.719     0.000    -17.09
   MgOH+           4.413e-09   3.562e-09    -8.355    -8.448    -0.093     (0)  
Na            2.589e-02
   Na+             2.589e-02   2.301e-02    -1.587    -1.638    -0.051     -1.29
S(6)          2.354e-04
   SO4-2           2.354e-04   1.132e-04    -3.628    -3.946    -0.318     15.21
   HSO4-           3.177e-11   2.713e-11   -10.498   -10.566    -0.068     40.40

------------------------------Saturation indices-------------------------------

  Phase               SI** log IAP   log K(298 K,   1 atm)

  Anhydrite        -4.73     -8.99   -4.25  CaSO4
  Aragonite        -0.22     -8.44   -8.22  CaCO3
  Artinite         -6.00     13.66   19.66  Mg2CO3(OH)2:3H2O
  Bischofite      -17.73    -13.13    4.59  MgCl2:6H2O
  Bloedite        -14.07    -16.42   -2.35  Na2Mg(SO4)2:4H2O
  Brucite          -5.14    -16.02  -10.88  Mg(OH)2
  Burkeite        -20.35    -21.12   -0.77  Na6CO3(SO4)2
  Calcite           0.00     -8.44   -8.44  CaCO3
  CO2(g)           -2.47     -3.94   -1.47  CO2
  Dolomite          0.00    -17.09  -17.09  CaMg(CO3)2
  Epsomite         -7.35     -9.20   -1.85  MgSO4:7H2O
  Gaylussite       -5.70    -15.12   -9.42  CaNa2(CO3)2:5H2O
  Glauberite      -10.86    -16.21   -5.35  Na2Ca(SO4)2
  Gypsum           -4.39     -8.99   -4.60  CaSO4:2H2O
  H2O(g)           -1.50     -0.00    1.50  H2O
  Halite           -7.16     -5.58    1.58  NaCl
  Hexahydrite      -7.63     -9.20   -1.57  MgSO4:6H2O
  Huntite          -3.27      6.98   10.24  CaMg3(CO3)4
  Kieserite        -8.93     -9.19   -0.27  MgSO4:H2O
  Labile_S        -17.76    -23.43   -5.67  Na4Ca(SO4)3:2H2O
  Leonhardite      -8.31     -9.19   -0.89  MgSO4:4H2O
  Magnesite        -0.81     -8.65   -7.83  MgCO3
  MgCl2_2H2O      -27.69    -13.13   14.56  MgCl2:2H2O
  MgCl2_4H2O      -20.11    -13.13    6.98  MgCl2:4H2O
  Mirabilite       -5.99     -7.23   -1.24  Na2SO4:10H2O
  Nahcolite        -2.90    -13.65  -10.74  NaHCO3
  Natron           -5.86     -6.68   -0.82  Na2CO3:10H2O
  Nesquehonite     -3.48     -8.65   -5.17  MgCO3:3H2O
  Pentahydrite     -7.91     -9.20   -1.28  MgSO4:5H2O
  Pirssonite       -5.88    -15.12   -9.23  Na2Ca(CO3)2:2H2O
  Portlandite     -10.62    -15.81   -5.19  Ca(OH)2
  Thenardite       -6.92     -7.22   -0.30  Na2SO4
  Trona            -8.94    -20.32  -11.38  Na3H(CO3)2:2H2O

**For a gas, SI = log10(fugacity). Fugacity = pressure * phi / 1 atm.
  For ideal gases, phi = 1.

Beginning of advection time step 3, cumulative pore volumes 3.000000.

Cell 1.

Using solution 1.	Solution after simulation 2.
Using exchange 1.	Exchange assemblage after simulation 3.
Using surface 1.	
Using pure phase assemblage 1.	Pure-phase assemblage after simulation 3.

-------------------------------Phase assemblage--------------------------------

                                                      Moles in assemblage
Phase               SI  log IAP  log K(T, P)   Initial       Final       Delta

Calcite           0.00    -8.44     -8.44    9.075e-02   8.659e-02  -4.157e-03
Dolomite          0.00   -17.09    -17.09    1.594e+00   1.592e+00  -1.746e-03

------------------------------Surface composition------------------------------

Diffuse Double Layer Surface-Complexation Model

Hfo           
	 -4.193e-03  Surface charge, eq
	 -2.248e-02  sigma, C/m²
	 -5.420e-02  psi, V
	  2.110e+00  -F*psi/RT
	  8.245e+00  exp(-F*psi/RT)
	  6.000e+02  specific area, m²/g
	  1.800e+04  m² for   3.000e+01 g


Hfo_w         
	  7.000e-02  moles
	                                   Mole                     Log
	Species               Moles    Fraction    Molality    Molality

	Hfo_wOH           2.912e-02       0.416   2.913e-02      -1.536
	Hfo_wHCO3         1.912e-02       0.273   1.912e-02      -1.718
	Hfo_wCO3-         1.076e-02       0.154   1.077e-02      -1.968
	Hfo_wOH2+         8.784e-03       0.125   8.785e-03      -2.056
	Hfo_wO-           2.212e-03       0.032   2.212e-03      -2.655
	Hfo_wOHSO4-2      3.141e-07       0.000   3.141e-07      -6.503
	Hfo_wSO4-         4.752e-08       0.000   4.752e-08      -7.323
	Hfo_wOCa+         1.041e-12       0.000   1.041e-12     -11.983
	Hfo_wOMg+         6.451e-13       0.000   6.452e-13     -12.190

-----------------------------Exchange composition------------------------------

X                1.000e+00 mol

	                               Equiv-    Equivalent      Log 
	Species             Moles      alents      Fraction     Gamma

	NaX               8.046e-01   8.046e-01   8.046e-01    -0.047
	CaX2              6.872e-02   1.374e-01   1.374e-01    -0.296
	MgX2              2.899e-02   5.798e-02   5.798e-02    -0.329

-----------------------------Solution composition------------------------------

	Elements           Molality       Moles

	C                 2.056e-02   2.055e-02
	Ca                1.607e-05   1.607e-05
	Cl                1.337e-04   1.337e-04
	Mg                1.266e-05   1.266e-05
	Na                2.185e-02   2.185e-02
	S                 2.351e-04   2.351e-04

----------------------------Description of solution----------------------------

                                       pH  =   8.727      Charge balance
                                       pe  =   4.000      Adjusted to redox equilibrium
      Specific Conductance (µS/cm,  25°C)  = 1923
                          Density (g/cm³)  =   0.99837
                               Volume (L)  =   1.00325
                        Viscosity (mPa s)  =   0.89341
                        Activity of water  =   0.999
                 Ionic strength (mol/kgw)  =   2.307e-02
                       Mass of water (kg)  =   9.998e-01
                 Total alkalinity (eq/kg)  =   2.136e-02
                       Total CO2 (mol/kg)  =   2.056e-02
                         Temperature (°C)  =  25.00
                  Electrical balance (eq)  =  -5.458e-05
 Percent error, 100*(Cat-|An|)/(Cat+|An|)  =  -0.12
                               Iterations  =  24
                         Gamma iterations  =   6
                      Osmotic coefficient  =   0.96814
                         Density of water  =   0.99704
                                  Total H  = 1.110124e+02
                                  Total O  = 5.555893e+01

----------------------------Distribution of species----------------------------

                                                    MacInnes  MacInnes
                                MacInnes       Log       Log       Log    mole V
   Species          Molality    Activity  Molality  Activity     Gamma   cm³/mol

   OH-             6.275e-06   5.391e-06    -5.202    -5.268    -0.066     -3.97
   H+              2.283e-09   1.876e-09    -8.642    -8.727    -0.085      0.00
   H2O             5.551e+01   9.993e-01     1.744    -0.000     0.000     18.07
C(4)          2.056e-02
   HCO3-           1.961e-02   1.832e-02    -1.708    -1.737    -0.030     24.56
   CO3-2           8.711e-04   4.471e-04    -3.060    -3.350    -0.290     -4.28
   CO2             7.522e-05   7.551e-05    -4.124    -4.122     0.002     34.79
   MgCO3           1.910e-06   1.910e-06    -5.719    -5.719     0.000    -17.09
Ca            1.607e-05
   Ca+2            1.607e-05   8.131e-06    -4.794    -5.090    -0.296    -17.79
Cl            1.337e-04
   Cl-             1.337e-04   1.152e-04    -3.874    -3.939    -0.065     18.19
Mg            1.266e-05
   Mg+2            1.074e-05   5.041e-06    -4.969    -5.298    -0.329    -21.48
   MgCO3           1.910e-06   1.910e-06    -5.719    -5.719     0.000    -17.09
   MgOH+           5.077e-09   4.167e-09    -8.294    -8.380    -0.086     (0)  
Na            2.185e-02
   Na+             2.185e-02   1.961e-02    -1.660    -1.708    -0.047     -1.31
S(6)          2.351e-04
   SO4-2           2.351e-04   1.189e-04    -3.629    -3.925    -0.296     15.15
   HSO4-           2.516e-11   2.169e-11   -10.599   -10.664    -0.064     40.39

------------------------------Saturation indices-------------------------------

  Phase               SI** log IAP   log K(298 K,   1 atm)

  Anhydrite        -4.76     -9.01   -4.25  CaSO4
  Aragonite        -0.22     -8.44   -8.22  CaCO3
  Artinite         -5.81     13.85   19.66  Mg2CO3(OH)2:3H2O
  Bischofite      -17.77    -13.18    4.59  MgCl2:6H2O
  Bloedite        -14.22    -16.56   -2.35  Na2Mg(SO4)2:4H2O
  Brucite          -4.95    -15.83  -10.88  Mg(OH)2
  Burkeite        -20.67    -21.44   -0.77  Na6CO3(SO4)2
  Calcite           0.00     -8.44   -8.44  CaCO3
  CO2(g)           -2.66     -4.12   -1.47  CO2
  Dolomite          0.00    -17.09  -17.09  CaMg(CO3)2
  Epsomite         -7.38     -9.22   -1.85  MgSO4:7H2O
  Gaylussite       -5.78    -15.21   -9.42  CaNa2(CO3)2:5H2O
  Glauberite      -11.00    -16.35   -5.35  Na2Ca(SO4)2
  Gypsum           -4.41     -9.02   -4.60  CaSO4:2H2O
  H2O(g)           -1.50     -0.00    1.50  H2O
  Halite           -7.23     -5.65    1.58  NaCl
  Hexahydrite      -7.66     -9.22   -1.57  MgSO4:6H2O
  Huntite          -3.27      6.98   10.24  CaMg3(CO3)4
  Kieserite        -8.96     -9.22   -0.27  MgSO4:H2O
  Labile_S        -18.02    -23.70   -5.67  Na4Ca(SO4)3:2H2O
  Leonhardite      -8.34     -9.22   -0.89  MgSO4:4H2O
  Magnesite        -0.81     -8.65   -7.83  MgCO3
  MgCl2_2H2O      -27.73    -13.18   14.56  MgCl2:2H2O
  MgCl2_4H2O      -20.15    -13.18    6.98  MgCl2:4H2O
  Mirabilite       -6.10     -7.34   -1.24  Na2SO4:10H2O
  Nahcolite        -3.04    -13.78  -10.74  NaHCO3
  Natron           -5.94     -6.77   -0.82  Na2CO3:10H2O
  Nesquehonite     -3.48     -8.65   -5.17  MgCO3:3H2O
  Pentahydrite     -7.94     -9.22   -1.28  MgSO4:5H2O
  Pirssonite       -5.97    -15.20   -9.23  Na2Ca(CO3)2:2H2O
  Portlandite     -10.44    -15.63   -5.19  Ca(OH)2
  Thenardite       -7.04     -7.34   -0.30  Na2SO4
  Trona            -9.17    -20.55  -11.38  Na3H(CO3)2:2H2O

**For a gas, SI = log10(fugacity). Fugacity = pressure * phi / 1 atm.
  For ideal gases, phi = 1.

Beginning of advection time step 4, cumulative pore volumes 4.000000.

Cell 1.

Using solution 1.	Solution after simulation 2.
Using exchange 1.	Exchange assemblage after simulation 3.
Using surface 1.	
Using pure phase assemblage 1.	Pure-phase assemblage after simulation 3.

-------------------------------Phase assemblage--------------------------------

                                                      Moles in assemblage
Phase               SI  log IAP  log K(T, P)   Initial       Final       Delta

Calcite           0.00    -8.44     -8.44    8.659e-02   8.297e-02  -3.625e-03
Dolomite          0.00   -17.09    -17.09    1.592e+00   1.591e+00  -1.379e-03

------------------------------Surface composition------------------------------

Diffuse Double Layer Surface-Complexation Model

Hfo           
	 -4.132e-03  Surface charge, eq
	 -2.215e-02  sigma, C/m²
	 -5.593e-02  psi, V
	  2.177e+00  -F*psi/RT
	  8.819e+00  exp(-F*psi/RT)
	  6.000e+02  specific area, m²/g
	  1.800e+04  m² for   3.000e+01 g


Hfo_w         
	  7.000e-02  moles
	                                   Mole                     Log
	Species               Moles    Fraction    Molality    Molality

	Hfo_wOH           3.306e-02       0.472   3.306e-02      -1.481
	Hfo_wHCO3         1.542e-02       0.220   1.542e-02      -1.812
	Hfo_wCO3-         9.950e-03       0.142   9.952e-03      -2.002
	Hfo_wOH2+         8.698e-03       0.124   8.699e-03      -2.061
	Hfo_wO-           2.878e-03       0.041   2.879e-03      -2.541
	Hfo_wOHSO4-2      3.238e-07       0.000   3.238e-07      -6.490
	Hfo_wSO4-         4.272e-08       0.000   4.273e-08      -7.369
	Hfo_wOCa+         1.451e-12       0.000   1.451e-12     -11.838
	Hfo_wOMg+         8.992e-13       0.000   8.994e-13     -12.046

-----------------------------Exchange composition------------------------------

X                1.000e+00 mol

	                               Equiv-    Equivalent      Log 
	Species             Moles      alents      Fraction     Gamma

	NaX               7.854e-01   7.854e-01   7.854e-01    -0.045
	CaX2              7.570e-02   1.514e-01   1.514e-01    -0.281
	MgX2              3.162e-02   6.323e-02   6.323e-02    -0.309

-----------------------------Solution composition------------------------------

	Elements           Molality       Moles

	C                 1.799e-02   1.798e-02
	Ca                1.454e-05   1.453e-05
	Cl                1.337e-04   1.337e-04
	Mg                1.154e-05   1.154e-05
	Na                1.933e-02   1.933e-02
	S                 2.351e-04   2.351e-04

----------------------------Description of solution----------------------------

                                       pH  =   8.815      Charge balance
                                       pe  =   4.000      Adjusted to redox equilibrium
      Specific Conductance (µS/cm,  25°C)  = 1724
                          Density (g/cm³)  =   0.99821
                               Volume (L)  =   1.00321
                        Viscosity (mPa s)  =   0.89313
                        Activity of water  =   0.999
                 Ionic strength (mol/kgw)  =   2.057e-02
                       Mass of water (kg)  =   9.998e-01
                 Total alkalinity (eq/kg)  =   1.884e-02
                       Total CO2 (mol/kg)  =   1.799e-02
                         Temperature (°C)  =  25.00
                  Electrical balance (eq)  =  -6.170e-05
 Percent error, 100*(Cat-|An|)/(Cat+|An|)  =  -0.16
                               Iterations  =  23
                         Gamma iterations  =   6
                      Osmotic coefficient  =   0.96941
                         Density of water  =   0.99704
                                  Total H  = 1.110124e+02
                                  Total O  = 5.555253e+01

----------------------------Distribution of species----------------------------

                                                    MacInnes  MacInnes
                                MacInnes       Log       Log       Log    mole V
   Species          Molality    Activity  Molality  Activity     Gamma   cm³/mol

   OH-             7.638e-06   6.611e-06    -5.117    -5.180    -0.063     -3.98
   H+              1.838e-09   1.530e-09    -8.736    -8.815    -0.080      0.00
   H2O             5.551e+01   9.993e-01     1.744    -0.000     0.000     18.07
C(4)          1.799e-02
   HCO3-           1.703e-02   1.596e-02    -1.769    -1.797    -0.028     24.51
   CO3-2           8.969e-04   4.775e-04    -3.047    -3.321    -0.274     -4.32
   CO2             5.345e-05   5.363e-05    -4.272    -4.271     0.001     34.79
   MgCO3           1.910e-06   1.910e-06    -5.719    -5.719     0.000    -17.09
Ca            1.454e-05
   Ca+2            1.454e-05   7.613e-06    -4.838    -5.118    -0.281    -17.81
Cl            1.337e-04
   Cl-             1.337e-04   1.160e-04    -3.874    -3.936    -0.062     18.18
Mg            1.154e-05
   Mg+2            9.622e-06   4.720e-06    -5.017    -5.326    -0.309    -21.50
   MgCO3           1.910e-06   1.910e-06    -5.719    -5.719     0.000    -17.09
   MgOH+           5.756e-09   4.785e-09    -8.240    -8.320    -0.080     (0)  
Na            1.933e-02
   Na+             1.933e-02   1.744e-02    -1.714    -1.758    -0.045     -1.32
S(6)          2.351e-04
   SO4-2           2.351e-04   1.235e-04    -3.629    -3.908    -0.280     15.11
   HSO4-           2.117e-11   1.838e-11   -10.674   -10.736    -0.061     40.38

------------------------------Saturation indices-------------------------------

  Phase               SI** log IAP   log K(298 K,   1 atm)

  Anhydrite        -4.78     -9.03   -4.25  CaSO4
  Aragonite        -0.22     -8.44   -8.22  CaCO3
  Artinite         -5.66     14.00   19.66  Mg2CO3(OH)2:3H2O
  Bischofite      -17.79    -13.20    4.59  MgCl2:6H2O
  Bloedite        -14.31    -16.66   -2.35  Na2Mg(SO4)2:4H2O
  Brucite          -4.81    -15.69  -10.88  Mg(OH)2
  Burkeite        -20.92    -21.69   -0.77  Na6CO3(SO4)2
  Calcite           0.00     -8.44   -8.44  CaCO3
  CO2(g)           -2.81     -4.27   -1.47  CO2
  Dolomite          0.00    -17.09  -17.09  CaMg(CO3)2
  Epsomite         -7.39     -9.24   -1.85  MgSO4:7H2O
  Gaylussite       -5.86    -15.28   -9.42  CaNa2(CO3)2:5H2O
  Glauberite      -11.10    -16.45   -5.35  Na2Ca(SO4)2
  Gypsum           -4.43     -9.03   -4.60  CaSO4:2H2O
  H2O(g)           -1.50     -0.00    1.50  H2O
  Halite           -7.28     -5.69    1.58  NaCl
  Hexahydrite      -7.67     -9.24   -1.57  MgSO4:6H2O
  Huntite          -3.27      6.98   10.24  CaMg3(CO3)4
  Kieserite        -8.97     -9.23   -0.27  MgSO4:H2O
  Labile_S        -18.20    -23.88   -5.67  Na4Ca(SO4)3:2H2O
  Leonhardite      -8.35     -9.24   -0.89  MgSO4:4H2O
  Magnesite        -0.81     -8.65   -7.83  MgCO3
  MgCl2_2H2O      -27.75    -13.20   14.56  MgCl2:2H2O
  MgCl2_4H2O      -20.18    -13.20    6.98  MgCl2:4H2O
  Mirabilite       -6.19     -7.43   -1.24  Na2SO4:10H2O
  Nahcolite        -3.15    -13.89  -10.74  NaHCO3
  Natron           -6.02     -6.84   -0.82  Na2CO3:10H2O
  Nesquehonite     -3.48     -8.65   -5.17  MgCO3:3H2O
  Pentahydrite     -7.95     -9.24   -1.28  MgSO4:5H2O
  Pirssonite       -6.04    -15.28   -9.23  Na2Ca(CO3)2:2H2O
  Portlandite     -10.29    -15.48   -5.19  Ca(OH)2
  Thenardite       -7.12     -7.42   -0.30  Na2SO4
  Trona            -9.35    -20.73  -11.38  Na3H(CO3)2:2H2O

**For a gas, SI = log10(fugacity). Fugacity = pressure * phi / 1 atm.
  For ideal gases, phi = 1.

Beginning of advection time step 5, cumulative pore volumes 5.000000.

Cell 1.

Using solution 1.	Solution after simulation 2.
Using exchange 1.	Exchange assemblage after simulation 3.
Using surface 1.	
Using pure phase assemblage 1.	Pure-phase assemblage after simulation 3.

-------------------------------Phase assemblage--------------------------------

                                                      Moles in assemblage
Phase               SI  log IAP  log K(T, P)   Initial       Final       Delta

Calcite           0.00    -8.44     -8.44    8.297e-02   7.976e-02  -3.202e-03
Dolomite          0.00   -17.09    -17.09    1.591e+00   1.590e+00  -1.129e-03

------------------------------Surface composition------------------------------

Diffuse Double Layer Surface-Complexation Model

Hfo           
	 -4.089e-03  Surface charge, eq
	 -2.192e-02  sigma, C/m²
	 -5.743e-02  psi, V
	  2.235e+00  -F*psi/RT
	  9.351e+00  exp(-F*psi/RT)
	  6.000e+02  specific area, m²/g
	  1.800e+04  m² for   3.000e+01 g


Hfo_w         
	  7.000e-02  moles
	                                   Mole                     Log
	Species               Moles    Fraction    Molality    Molality

	Hfo_wOH           3.613e-02       0.516   3.614e-02      -1.442
	Hfo_wHCO3         1.270e-02       0.181   1.270e-02      -1.896
	Hfo_wCO3-         9.125e-03       0.130   9.127e-03      -2.040
	Hfo_wOH2+         8.540e-03       0.122   8.541e-03      -2.069
	Hfo_wO-           3.502e-03       0.050   3.503e-03      -2.456
	Hfo_wOHSO4-2      3.243e-07       0.000   3.244e-07      -6.489
	Hfo_wSO4-         3.844e-08       0.000   3.844e-08      -7.415
	Hfo_wOCa+         1.889e-12       0.000   1.890e-12     -11.724
	Hfo_wOMg+         1.171e-12       0.000   1.171e-12     -11.931

-----------------------------Exchange composition------------------------------

X                1.000e+00 mol

	                               Equiv-    Equivalent      Log 
	Species             Moles      alents      Fraction     Gamma

	NaX               7.680e-01   7.680e-01   7.680e-01    -0.043
	CaX2              8.200e-02   1.640e-01   1.640e-01    -0.269
	MgX2              3.399e-02   6.798e-02   6.798e-02    -0.294

-----------------------------Solution composition------------------------------

	Elements           Molality       Moles

	C                 1.608e-02   1.608e-02
	Ca                1.347e-05   1.347e-05
	Cl                1.337e-04   1.337e-04
	Mg                1.077e-05   1.076e-05
	Na                1.748e-02   1.748e-02
	S                 2.351e-04   2.351e-04

----------------------------Description of solution----------------------------

                                       pH  =   8.887      Charge balance
                                       pe  =   4.000      Adjusted to redox equilibrium
      Specific Conductance (µS/cm,  25°C)  = 1577
                          Density (g/cm³)  =   0.99810
                               Volume (L)  =   1.00318
                        Viscosity (mPa s)  =   0.89292
                        Activity of water  =   0.999
                 Ionic strength (mol/kgw)  =   1.872e-02
                       Mass of water (kg)  =   9.999e-01
                 Total alkalinity (eq/kg)  =   1.697e-02
                       Total CO2 (mol/kg)  =   1.608e-02
                         Temperature (°C)  =  25.00
                  Electrical balance (eq)  =  -4.284e-05
 Percent error, 100*(Cat-|An|)/(Cat+|An|)  =  -0.12
                               Iterations  =  23
                         Gamma iterations  =   6
                      Osmotic coefficient  =   0.97024
                         Density of water  =   0.99704
                                  Total H  = 1.110124e+02
                                  Total O  = 5.554780e+01

----------------------------Distribution of species----------------------------

                                                    MacInnes  MacInnes
                                MacInnes       Log       Log       Log    mole V
   Species          Molality    Activity  Molality  Activity     Gamma   cm³/mol

   OH-             8.965e-06   7.804e-06    -5.047    -5.108    -0.060     -3.99
   H+              1.542e-09   1.296e-09    -8.812    -8.887    -0.076      0.00
   H2O             5.551e+01   9.994e-01     1.744    -0.000     0.000     18.07
C(4)          1.608e-02
   HCO3-           1.513e-02   1.420e-02    -1.820    -1.848    -0.028     24.47
   CO3-2           9.152e-04   5.015e-04    -3.038    -3.300    -0.261     -4.35
   CO2             4.030e-05   4.042e-05    -4.395    -4.393     0.001     34.79
   MgCO3           1.910e-06   1.910e-06    -5.719    -5.719     0.000    -17.09
Ca            1.347e-05
   Ca+2            1.347e-05   7.249e-06    -4.871    -5.140    -0.269    -17.83
Cl            1.337e-04
   Cl-             1.337e-04   1.166e-04    -3.874    -3.933    -0.059     18.17
Mg            1.077e-05
   Mg+2            8.849e-06   4.494e-06    -5.053    -5.347    -0.294    -21.51
   MgCO3           1.910e-06   1.910e-06    -5.719    -5.719     0.000    -17.09
   MgOH+           6.407e-09   5.379e-09    -8.193    -8.269    -0.076     (0)  
Na            1.748e-02
   Na+             1.748e-02   1.584e-02    -1.757    -1.800    -0.043     -1.33
S(6)          2.351e-04
   SO4-2           2.351e-04   1.273e-04    -3.629    -3.895    -0.267     15.07
   HSO4-           1.838e-11   1.604e-11   -10.736   -10.795    -0.059     40.37

------------------------------Saturation indices-------------------------------

  Phase               SI** log IAP   log K(298 K,   1 atm)

  Anhydrite        -4.78     -9.03   -4.25  CaSO4
  Aragonite        -0.22     -8.44   -8.22  CaCO3
  Artinite         -5.54     14.12   19.66  Mg2CO3(OH)2:3H2O
  Bischofite      -17.81    -13.22    4.59  MgCl2:6H2O
  Bloedite        -14.39    -16.74   -2.35  Na2Mg(SO4)2:4H2O
  Brucite          -4.68    -15.56  -10.88  Mg(OH)2
  Burkeite        -21.12    -21.89   -0.77  Na6CO3(SO4)2
  Calcite           0.00     -8.44   -8.44  CaCO3
  CO2(g)           -2.93     -4.39   -1.47  CO2
  Dolomite          0.00    -17.09  -17.09  CaMg(CO3)2
  Epsomite         -7.40     -9.24   -1.85  MgSO4:7H2O
  Gaylussite       -5.92    -15.34   -9.42  CaNa2(CO3)2:5H2O
  Glauberite      -11.18    -16.53   -5.35  Na2Ca(SO4)2
  Gypsum           -4.43     -9.04   -4.60  CaSO4:2H2O
  H2O(g)           -1.50     -0.00    1.50  H2O
  Halite           -7.31     -5.73    1.58  NaCl
  Hexahydrite      -7.68     -9.24   -1.57  MgSO4:6H2O
  Huntite          -3.27      6.98   10.24  CaMg3(CO3)4
  Kieserite        -8.98     -9.24   -0.27  MgSO4:H2O
  Labile_S        -18.35    -24.03   -5.67  Na4Ca(SO4)3:2H2O
  Leonhardite      -8.36     -9.24   -0.89  MgSO4:4H2O
  Magnesite        -0.81     -8.65   -7.83  MgCO3
  MgCl2_2H2O      -27.77    -13.21   14.56  MgCl2:2H2O
  MgCl2_4H2O      -20.19    -13.21    6.98  MgCl2:4H2O
  Mirabilite       -6.26     -7.50   -1.24  Na2SO4:10H2O
  Nahcolite        -3.25    -13.99  -10.74  NaHCO3
  Natron           -6.08     -6.90   -0.82  Na2CO3:10H2O
  Nesquehonite     -3.48     -8.65   -5.17  MgCO3:3H2O
  Pentahydrite     -7.96     -9.24   -1.28  MgSO4:5H2O
  Pirssonite       -6.11    -15.34   -9.23  Na2Ca(CO3)2:2H2O
  Portlandite     -10.17    -15.36   -5.19  Ca(OH)2
  Thenardite       -7.20     -7.50   -0.30  Na2SO4
  Trona            -9.50    -20.89  -11.38  Na3H(CO3)2:2H2O

**For a gas, SI = log10(fugacity). Fugacity = pressure * phi / 1 atm.
  For ideal gases, phi = 1.

Beginning of advection time step 6, cumulative pore volumes 6.000000.

Cell 1.

Using solution 1.	Solution after simulation 2.
Using exchange 1.	Exchange assemblage after simulation 3.
Using surface 1.	
Using pure phase assemblage 1.	Pure-phase assemblage after simulation 3.

-------------------------------Phase assemblage--------------------------------

                                                      Moles in assemblage
Phase               SI  log IAP  log K(T, P)   Initial       Final       Delta

Calcite           0.00    -8.44     -8.44    7.976e-02   7.689e-02  -2.874e-03
Dolomite          0.00   -17.09    -17.09    1.590e+00   1.589e+00  -9.374e-04

------------------------------Surface composition------------------------------

Diffuse Double Layer Surface-Complexation Model

Hfo           
	 -4.060e-03  Surface charge, eq
	 -2.176e-02  sigma, C/m²
	 -5.878e-02  psi, V
	  2.288e+00  -F*psi/RT
	  9.853e+00  exp(-F*psi/RT)
	  6.000e+02  specific area, m²/g
	  1.800e+04  m² for   3.000e+01 g


Hfo_w         
	  7.000e-02  moles
	                                   Mole                     Log
	Species               Moles    Fraction    Molality    Molality

	Hfo_wOH           3.854e-02       0.551   3.854e-02      -1.414
	Hfo_wHCO3         1.068e-02       0.153   1.068e-02      -1.972
	Hfo_wOH2+         8.363e-03       0.119   8.365e-03      -2.078
	Hfo_wCO3-         8.355e-03       0.119   8.356e-03      -2.078
	Hfo_wO-           4.068e-03       0.058   4.068e-03      -2.391
	Hfo_wOHSO4-2      3.191e-07       0.000   3.192e-07      -6.496
	Hfo_wSO4-         3.473e-08       0.000   3.474e-08      -7.459
	Hfo_wOCa+         2.347e-12       0.000   2.348e-12     -11.629
	Hfo_wOMg+         1.455e-12       0.000   1.455e-12     -11.837

-----------------------------Exchange composition------------------------------

X                1.000e+00 mol

	                               Equiv-    Equivalent      Log 
	Species             Moles      alents      Fraction     Gamma

	NaX               7.521e-01   7.521e-01   7.521e-01    -0.041
	CaX2              8.779e-02   1.756e-01   1.756e-01    -0.260
	MgX2              3.618e-02   7.235e-02   7.235e-02    -0.282

-----------------------------Solution composition------------------------------

	Elements           Molality       Moles

	C                 1.463e-02   1.462e-02
	Ca                1.269e-05   1.269e-05
	Cl                1.337e-04   1.337e-04
	Mg                1.021e-05   1.021e-05
	Na                1.606e-02   1.606e-02
	S                 2.351e-04   2.351e-04

----------------------------Description of solution----------------------------

                                       pH  =   8.947      Charge balance
                                       pe  =   4.000      Adjusted to redox equilibrium
      Specific Conductance (µS/cm,  25°C)  = 1462
                          Density (g/cm³)  =   0.99801
                               Volume (L)  =   1.00316
                        Viscosity (mPa s)  =   0.89276
                        Activity of water  =   0.999
                 Ionic strength (mol/kgw)  =   1.730e-02
                       Mass of water (kg)  =   9.999e-01
                 Total alkalinity (eq/kg)  =   1.553e-02
                       Total CO2 (mol/kg)  =   1.463e-02
                         Temperature (°C)  =  25.00
                  Electrical balance (eq)  =  -2.908e-05
 Percent error, 100*(Cat-|An|)/(Cat+|An|)  =  -0.09
                               Iterations  =  23
                         Gamma iterations  =   6
                      Osmotic coefficient  =   0.97080
                         Density of water  =   0.99704
                                  Total H  = 1.110124e+02
                                  Total O  = 5.554417e+01

----------------------------Distribution of species----------------------------

                                                    MacInnes  MacInnes
                                MacInnes       Log       Log       Log    mole V
   Species          Molality    Activity  Molality  Activity     Gamma   cm³/mol

   OH-             1.024e-05   8.955e-06    -4.990    -5.048    -0.058     -4.00
   H+              1.334e-09   1.130e-09    -8.875    -8.947    -0.072      0.00
   H2O             5.551e+01   9.995e-01     1.744    -0.000     0.000     18.07
C(4)          1.463e-02
   HCO3-           1.366e-02   1.284e-02    -1.864    -1.891    -0.027     24.44
   CO3-2           9.281e-04   5.205e-04    -3.032    -3.284    -0.251     -4.38
   CO2             3.177e-05   3.186e-05    -4.498    -4.497     0.001     34.79
   MgCO3           1.910e-06   1.910e-06    -5.719    -5.719     0.000    -17.09
Ca            1.269e-05
   Ca+2            1.269e-05   6.984e-06    -4.896    -5.156    -0.260    -17.84
Cl            1.337e-04
   Cl-             1.337e-04   1.171e-04    -3.874    -3.931    -0.057     18.17
Mg            1.021e-05
   Mg+2            8.291e-06   4.329e-06    -5.081    -5.364    -0.282    -21.53
   MgCO3           1.910e-06   1.910e-06    -5.719    -5.719     0.000    -17.09
   MgOH+           7.028e-09   5.946e-09    -8.153    -8.226    -0.073     (0)  
Na            1.606e-02
   Na+             1.606e-02   1.460e-02    -1.794    -1.836    -0.041     -1.34
S(6)          2.351e-04
   SO4-2           2.351e-04   1.304e-04    -3.629    -3.885    -0.256     15.05
   HSO4-           1.633e-11   1.432e-11   -10.787   -10.844    -0.057     40.37

------------------------------Saturation indices-------------------------------

  Phase               SI** log IAP   log K(298 K,   1 atm)

  Anhydrite        -4.79     -9.04   -4.25  CaSO4
  Aragonite        -0.22     -8.44   -8.22  CaCO3
  Artinite         -5.44     14.22   19.66  Mg2CO3(OH)2:3H2O
  Bischofite      -17.82    -13.23    4.59  MgCl2:6H2O
  Bloedite        -14.46    -16.81   -2.35  Na2Mg(SO4)2:4H2O
  Brucite          -4.58    -15.46  -10.88  Mg(OH)2
  Burkeite        -21.29    -22.07   -0.77  Na6CO3(SO4)2
  Calcite           0.00     -8.44   -8.44  CaCO3
  CO2(g)           -3.03     -4.50   -1.47  CO2
  Dolomite          0.00    -17.09  -17.09  CaMg(CO3)2
  Epsomite         -7.40     -9.25   -1.85  MgSO4:7H2O
  Gaylussite       -5.97    -15.40   -9.42  CaNa2(CO3)2:5H2O
  Glauberite      -11.25    -16.60   -5.35  Na2Ca(SO4)2
  Gypsum           -4.44     -9.04   -4.60  CaSO4:2H2O
  H2O(g)           -1.50     -0.00    1.50  H2O
  Halite           -7.35     -5.77    1.58  NaCl
  Hexahydrite      -7.68     -9.25   -1.57  MgSO4:6H2O
  Huntite          -3.27      6.98   10.24  CaMg3(CO3)4
  Kieserite        -8.98     -9.25   -0.27  MgSO4:H2O
  Labile_S        -18.48    -24.15   -5.67  Na4Ca(SO4)3:2H2O
  Leonhardite      -8.36     -9.25   -0.89  MgSO4:4H2O
  Magnesite        -0.81     -8.65   -7.83  MgCO3
  MgCl2_2H2O      -27.78    -13.23   14.56  MgCl2:2H2O
  MgCl2_4H2O      -20.21    -13.23    6.98  MgCl2:4H2O
  Mirabilite       -6.32     -7.56   -1.24  Na2SO4:10H2O
  Nahcolite        -3.32    -14.07  -10.74  NaHCO3
  Natron           -6.13     -6.96   -0.82  Na2CO3:10H2O
  Nesquehonite     -3.48     -8.65   -5.17  MgCO3:3H2O
  Pentahydrite     -7.96     -9.25   -1.28  MgSO4:5H2O
  Pirssonite       -6.16    -15.39   -9.23  Na2Ca(CO3)2:2H2O
  Portlandite     -10.06    -15.25   -5.19  Ca(OH)2
  Thenardite       -7.26     -7.56   -0.30  Na2SO4
  Trona            -9.64    -21.02  -11.38  Na3H(CO3)2:2H2O

**For a gas, SI = log10(fugacity). Fugacity = pressure * phi / 1 atm.
  For ideal gases, phi = 1.

Beginning of advection time step 7, cumulative pore volumes 7.000000.

Cell 1.

Using solution 1.	Solution after simulation 2.
Using exchange 1.	Exchange assemblage after simulation 3.
Using surface 1.	
Using pure phase assemblage 1.	Pure-phase assemblage after simulation 3.

-------------------------------Phase assemblage--------------------------------

                                                      Moles in assemblage
Phase               SI  log IAP  log K(T, P)   Initial       Final       Delta

Calcite           0.00    -8.44     -8.44    7.689e-02   7.428e-02  -2.611e-03
Dolomite          0.00   -17.09    -17.09    1.589e+00   1.588e+00  -7.873e-04

------------------------------Surface composition------------------------------

Diffuse Double Layer Surface-Complexation Model

Hfo           
	 -4.039e-03  Surface charge, eq
	 -2.165e-02  sigma, C/m²
	 -5.997e-02  psi, V
	  2.334e+00  -F*psi/RT
	  1.032e+01  exp(-F*psi/RT)
	  6.000e+02  specific area, m²/g
	  1.800e+04  m² for   3.000e+01 g


Hfo_w         
	  7.000e-02  moles
	                                   Mole                     Log
	Species               Moles    Fraction    Molality    Molality

	Hfo_wOH           4.042e-02       0.577   4.042e-02      -1.393
	Hfo_wHCO3         9.156e-03       0.131   9.157e-03      -2.038
	Hfo_wOH2+         8.195e-03       0.117   8.196e-03      -2.086
	Hfo_wCO3-         7.668e-03       0.110   7.669e-03      -2.115
	Hfo_wO-           4.566e-03       0.065   4.566e-03      -2.340
	Hfo_wOHSO4-2      3.111e-07       0.000   3.111e-07      -6.507
	Hfo_wSO4-         3.163e-08       0.000   3.163e-08      -7.500
	Hfo_wOCa+         2.813e-12       0.000   2.813e-12     -11.551
	Hfo_wOMg+         1.744e-12       0.000   1.744e-12     -11.758

-----------------------------Exchange composition------------------------------

X                1.000e+00 mol

	                               Equiv-    Equivalent      Log 
	Species             Moles      alents      Fraction     Gamma

	NaX               7.373e-01   7.373e-01   7.373e-01    -0.040
	CaX2              9.316e-02   1.863e-01   1.863e-01    -0.252
	MgX2              3.821e-02   7.642e-02   7.642e-02    -0.272

-----------------------------Solution composition------------------------------

	Elements           Molality       Moles

	C                 1.348e-02   1.348e-02
	Ca                1.213e-05   1.212e-05
	Cl                1.337e-04   1.337e-04
	Mg                9.800e-06   9.799e-06
	Na                1.494e-02   1.494e-02
	S                 2.351e-04   2.351e-04

----------------------------Description of solution----------------------------

                                       pH  =   8.997      Charge balance
                                       pe  =   4.000      Adjusted to redox equilibrium
      Specific Conductance (µS/cm,  25°C)  = 1371
                          Density (g/cm³)  =   0.99795
                               Volume (L)  =   1.00314
                        Viscosity (mPa s)  =   0.89263
                        Activity of water  =   0.999
                 Ionic strength (mol/kgw)  =   1.618e-02
                       Mass of water (kg)  =   9.999e-01
                 Total alkalinity (eq/kg)  =   1.440e-02
                       Total CO2 (mol/kg)  =   1.348e-02
                         Temperature (°C)  =  25.00
                  Electrical balance (eq)  =  -2.086e-05
 Percent error, 100*(Cat-|An|)/(Cat+|An|)  =  -0.07
                               Iterations  =  23
                         Gamma iterations  =   6
                      Osmotic coefficient  =   0.97119
                         Density of water  =   0.99704
                                  Total H  = 1.110124e+02
                                  Total O  = 5.554131e+01

----------------------------Distribution of species----------------------------

                                                    MacInnes  MacInnes
                                MacInnes       Log       Log       Log    mole V
   Species          Molality    Activity  Molality  Activity     Gamma   cm³/mol

   OH-             1.144e-05   1.004e-05    -4.942    -4.998    -0.057     -4.00
   H+              1.182e-09   1.008e-09    -8.927    -8.997    -0.069      0.00
   H2O             5.551e+01   9.995e-01     1.744    -0.000     0.000     18.07
C(4)          1.348e-02
   HCO3-           1.251e-02   1.177e-02    -1.903    -1.929    -0.026     24.41
   CO3-2           9.360e-04   5.351e-04    -3.029    -3.272    -0.243     -4.41
   CO2             2.599e-05   2.605e-05    -4.585    -4.584     0.001     34.79
   MgCO3           1.910e-06   1.910e-06    -5.719    -5.719     0.000    -17.09
Ca            1.213e-05
   Ca+2            1.213e-05   6.794e-06    -4.916    -5.168    -0.252    -17.85
Cl            1.337e-04
   Cl-             1.337e-04   1.176e-04    -3.874    -3.930    -0.056     18.16
Mg            9.800e-06
   Mg+2            7.883e-06   4.212e-06    -5.103    -5.376    -0.272    -21.54
   MgCO3           1.910e-06   1.910e-06    -5.719    -5.719     0.000    -17.09
   MgOH+           7.617e-09   6.486e-09    -8.118    -8.188    -0.070     (0)  
Na            1.494e-02
   Na+             1.494e-02   1.362e-02    -1.826    -1.866    -0.040     -1.34
S(6)          2.351e-04
   SO4-2           2.351e-04   1.330e-04    -3.629    -3.876    -0.247     15.02
   HSO4-           1.480e-11   1.303e-11   -10.830   -10.885    -0.055     40.37

------------------------------Saturation indices-------------------------------

  Phase               SI** log IAP   log K(298 K,   1 atm)

  Anhydrite        -4.79     -9.04   -4.25  CaSO4
  Aragonite        -0.22     -8.44   -8.22  CaCO3
  Artinite         -5.35     14.31   19.66  Mg2CO3(OH)2:3H2O
  Bischofite      -17.83    -13.24    4.59  MgCl2:6H2O
  Bloedite        -14.51    -16.86   -2.35  Na2Mg(SO4)2:4H2O
  Brucite          -4.49    -15.37  -10.88  Mg(OH)2
  Burkeite        -21.45    -22.22   -0.77  Na6CO3(SO4)2
[...]
                                       pe  =   4.000      Adjusted to redox equilibrium
      Specific Conductance (µS/cm,  25°C)  = 619
                          Density (g/cm³)  =   0.99747
                               Volume (L)  =   1.00304
                        Viscosity (mPa s)  =   0.89328
                        Activity of water  =   1.000
                 Ionic strength (mol/kgw)  =   1.008e-02
                       Mass of water (kg)  =   9.999e-01
                 Total alkalinity (eq/kg)  =   6.002e-03
                       Total CO2 (mol/kg)  =   7.080e-03
                         Temperature (°C)  =  25.00
                  Electrical balance (eq)  =   1.487e-08
 Percent error, 100*(Cat-|An|)/(Cat+|An|)  =   0.00
                               Iterations  =   8
                         Gamma iterations  =   3
                      Osmotic coefficient  =   0.94058
                         Density of water  =   0.99704
                                  Total H  = 1.110125e+02
                                  Total O  = 5.552433e+01

----------------------------Distribution of species----------------------------

                                                    MacInnes  MacInnes
                                MacInnes       Log       Log       Log    mole V
   Species          Molality    Activity  Molality  Activity     Gamma   cm³/mol

   OH-             1.259e-07   1.109e-07    -6.900    -6.955    -0.055     -4.03
   H+              1.018e-07   9.124e-08    -6.992    -7.040    -0.048      0.00
   H2O             5.551e+01   9.998e-01     1.744    -0.000     0.000     18.07
C(4)          7.080e-03
   HCO3-           5.989e-03   5.420e-03    -2.223    -2.266    -0.043     24.23
   CO2             1.084e-03   1.086e-03    -2.965    -2.964     0.001     34.79
   CO3-2           4.304e-06   2.720e-06    -5.366    -5.565    -0.199     -4.54
   MgCO3           1.955e-06   1.955e-06    -5.709    -5.709     0.000    -17.09
Ca            1.949e-03
   Ca+2            1.949e-03   1.306e-03    -2.710    -2.884    -0.174    -17.93
Cl            1.337e-04
   Cl-             1.337e-04   1.204e-04    -3.874    -3.919    -0.045     18.14
Mg            1.293e-03
   Mg+2            1.291e-03   8.481e-04    -2.889    -3.072    -0.182    -21.61
   MgCO3           1.955e-06   1.955e-06    -5.709    -5.709     0.000    -17.09
   MgOH+           1.610e-08   1.443e-08    -7.793    -7.841    -0.048     (0)  
Na            1.227e-04
   Na+             1.227e-04   1.143e-04    -3.911    -3.942    -0.031     -1.38
S(6)          2.351e-04
   SO4-2           2.351e-04   1.311e-04    -3.629    -3.882    -0.254     14.89
   HSO4-           1.285e-09   1.163e-09    -8.891    -8.935    -0.043     40.34

------------------------------Saturation indices-------------------------------

  Phase               SI** log IAP   log K(298 K,   1 atm)

  Anhydrite        -2.52     -6.77   -4.25  CaSO4
  Aragonite        -0.23     -8.45   -8.22  CaCO3
  Artinite         -6.95     12.71   19.66  Mg2CO3(OH)2:3H2O
  Bischofite      -15.50    -10.91    4.59  MgCl2:6H2O
  Bloedite        -16.37    -18.72   -2.35  Na2Mg(SO4)2:4H2O
  Brucite          -6.10    -16.98  -10.88  Mg(OH)2
  Burkeite        -36.21    -36.98   -0.77  Na6CO3(SO4)2
  Calcite          -0.01     -8.45   -8.44  CaCO3
  CO2(g)           -1.50     -2.96   -1.47  CO2
  Dolomite          0.00    -17.09  -17.09  CaMg(CO3)2
  Epsomite         -5.11     -6.95   -1.85  MgSO4:7H2O
  Gaylussite      -12.48    -21.90   -9.42  CaNa2(CO3)2:5H2O
  Glauberite      -13.18    -18.53   -5.35  Na2Ca(SO4)2
  Gypsum           -2.17     -6.77   -4.60  CaSO4:2H2O
  H2O(g)           -1.50     -0.00    1.50  H2O
  Halite           -9.44     -7.86    1.58  NaCl
  Hexahydrite      -5.39     -6.95   -1.57  MgSO4:6H2O
  Huntite          -3.25      7.00   10.24  CaMg3(CO3)4
  Kieserite        -6.69     -6.95   -0.27  MgSO4:H2O
  Labile_S        -24.63    -30.30   -5.67  Na4Ca(SO4)3:2H2O
  Leonhardite      -6.07     -6.95   -0.89  MgSO4:4H2O
  Magnesite        -0.80     -8.64   -7.83  MgCO3
  MgCl2_2H2O      -25.47    -10.91   14.56  MgCl2:2H2O
  MgCl2_4H2O      -17.89    -10.91    6.98  MgCl2:4H2O
  Mirabilite      -10.53    -11.77   -1.24  Na2SO4:10H2O
  Nahcolite        -5.81    -16.55  -10.74  NaHCO3
  Natron          -12.63    -13.45   -0.82  Na2CO3:10H2O
  Nesquehonite     -3.47     -8.64   -5.17  MgCO3:3H2O
  Pentahydrite     -5.67     -6.95   -1.28  MgSO4:5H2O
  Pirssonite      -12.67    -21.90   -9.23  Na2Ca(CO3)2:2H2O
  Portlandite     -11.60    -16.79   -5.19  Ca(OH)2
  Thenardite      -11.47    -11.77   -0.30  Na2SO4
  Trona           -18.61    -30.00  -11.38  Na3H(CO3)2:2H2O

**For a gas, SI = log10(fugacity). Fugacity = pressure * phi / 1 atm.
  For ideal gases, phi = 1.

Beginning of advection time step 199, cumulative pore volumes 199.000000.

Cell 1.

Using solution 1.	Solution after simulation 2.
Using exchange 1.	Exchange assemblage after simulation 3.
Using surface 1.	
Using pure phase assemblage 1.	Pure-phase assemblage after simulation 3.

-------------------------------Phase assemblage--------------------------------

                                                      Moles in assemblage
Phase               SI  log IAP  log K(T, P)   Initial       Final       Delta

Calcite          -0.01    -8.45     -8.44    0.000e+00           0   0.000e+00
Dolomite          0.00   -17.09    -17.09    1.587e+00   1.587e+00   1.221e-06

------------------------------Surface composition------------------------------

Diffuse Double Layer Surface-Complexation Model

Hfo           
	  3.384e-04  Surface charge, eq
	  1.814e-03  sigma, C/m²
	  7.882e-03  psi, V
	 -3.068e-01  -F*psi/RT
	  7.358e-01  exp(-F*psi/RT)
	  6.000e+02  specific area, m²/g
	  1.800e+04  m² for   3.000e+01 g


Hfo_w         
	  7.000e-02  moles
	                                   Mole                     Log
	Species               Moles    Fraction    Molality    Molality

	Hfo_wHCO3         5.086e-02       0.727   5.086e-02      -1.294
	Hfo_wOH2+         7.052e-03       0.101   7.052e-03      -2.152
	Hfo_wCO3-         6.598e-03       0.094   6.598e-03      -2.181
	Hfo_wOH           5.387e-03       0.077   5.387e-03      -2.269
	Hfo_wO-           9.428e-05       0.001   9.428e-05      -4.026
	Hfo_wOHSO4-2      8.042e-06       0.000   8.042e-06      -5.095
	Hfo_wSO4-         5.277e-06       0.000   5.277e-06      -5.278
	Hfo_wOCa+         5.674e-14       0.000   5.675e-14     -13.246
	Hfo_wOMg+         3.684e-14       0.000   3.684e-14     -13.434

-----------------------------Exchange composition------------------------------

X                1.000e+00 mol

	                               Equiv-    Equivalent      Log 
	Species             Moles      alents      Fraction     Gamma

	CaX2              3.524e-01   7.047e-01   7.047e-01    -0.174
	MgX2              1.472e-01   2.944e-01   2.944e-01    -0.182
	NaX               9.290e-04   9.290e-04   9.290e-04    -0.031

-----------------------------Solution composition------------------------------

	Elements           Molality       Moles

	C                 7.080e-03   7.079e-03
	Ca                1.949e-03   1.949e-03
	Cl                1.337e-04   1.337e-04
	Mg                1.292e-03   1.292e-03
	Na                1.227e-04   1.227e-04
	S                 2.351e-04   2.351e-04

----------------------------Description of solution----------------------------

                                       pH  =   7.040      Charge balance
                                       pe  =   4.000      Adjusted to redox equilibrium
      Specific Conductance (µS/cm,  25°C)  = 619
                          Density (g/cm³)  =   0.99747
                               Volume (L)  =   1.00304
                        Viscosity (mPa s)  =   0.89328
                        Activity of water  =   1.000
                 Ionic strength (mol/kgw)  =   1.008e-02
                       Mass of water (kg)  =   9.999e-01
                 Total alkalinity (eq/kg)  =   6.002e-03
                       Total CO2 (mol/kg)  =   7.080e-03
                         Temperature (°C)  =  25.00
                  Electrical balance (eq)  =   1.481e-08
 Percent error, 100*(Cat-|An|)/(Cat+|An|)  =   0.00
                               Iterations  =   8
                         Gamma iterations  =   3
                      Osmotic coefficient  =   0.94058
                         Density of water  =   0.99704
                                  Total H  = 1.110125e+02
                                  Total O  = 5.552433e+01

----------------------------Distribution of species----------------------------

                                                    MacInnes  MacInnes
                                MacInnes       Log       Log       Log    mole V
   Species          Molality    Activity  Molality  Activity     Gamma   cm³/mol

   OH-             1.259e-07   1.109e-07    -6.900    -6.955    -0.055     -4.03
   H+              1.018e-07   9.124e-08    -6.992    -7.040    -0.048      0.00
   H2O             5.551e+01   9.998e-01     1.744    -0.000     0.000     18.07
C(4)          7.080e-03
   HCO3-           5.989e-03   5.420e-03    -2.223    -2.266    -0.043     24.23
   CO2             1.084e-03   1.086e-03    -2.965    -2.964     0.001     34.79
   CO3-2           4.304e-06   2.720e-06    -5.366    -5.565    -0.199     -4.54
   MgCO3           1.954e-06   1.954e-06    -5.709    -5.709     0.000    -17.09
Ca            1.949e-03
   Ca+2            1.949e-03   1.306e-03    -2.710    -2.884    -0.174    -17.93
Cl            1.337e-04
   Cl-             1.337e-04   1.204e-04    -3.874    -3.919    -0.045     18.14
Mg            1.292e-03
   Mg+2            1.290e-03   8.479e-04    -2.889    -3.072    -0.182    -21.61
   MgCO3           1.954e-06   1.954e-06    -5.709    -5.709     0.000    -17.09
   MgOH+           1.610e-08   1.442e-08    -7.793    -7.841    -0.048     (0)  
Na            1.227e-04
   Na+             1.227e-04   1.143e-04    -3.911    -3.942    -0.031     -1.38
S(6)          2.351e-04
   SO4-2           2.351e-04   1.311e-04    -3.629    -3.882    -0.254     14.89
   HSO4-           1.285e-09   1.163e-09    -8.891    -8.935    -0.043     40.34

------------------------------Saturation indices-------------------------------

  Phase               SI** log IAP   log K(298 K,   1 atm)

  Anhydrite        -2.52     -6.77   -4.25  CaSO4
  Aragonite        -0.23     -8.45   -8.22  CaCO3
  Artinite         -6.95     12.71   19.66  Mg2CO3(OH)2:3H2O
  Bischofite      -15.50    -10.91    4.59  MgCl2:6H2O
  Bloedite        -16.37    -18.72   -2.35  Na2Mg(SO4)2:4H2O
  Brucite          -6.10    -16.98  -10.88  Mg(OH)2
  Burkeite        -36.21    -36.98   -0.77  Na6CO3(SO4)2
  Calcite          -0.01     -8.45   -8.44  CaCO3
  CO2(g)           -1.50     -2.96   -1.47  CO2
  Dolomite          0.00    -17.09  -17.09  CaMg(CO3)2
  Epsomite         -5.11     -6.95   -1.85  MgSO4:7H2O
  Gaylussite      -12.48    -21.90   -9.42  CaNa2(CO3)2:5H2O
  Glauberite      -13.18    -18.53   -5.35  Na2Ca(SO4)2
  Gypsum           -2.17     -6.77   -4.60  CaSO4:2H2O
  H2O(g)           -1.50     -0.00    1.50  H2O
  Halite           -9.44     -7.86    1.58  NaCl
  Hexahydrite      -5.39     -6.95   -1.57  MgSO4:6H2O
  Huntite          -3.25      7.00   10.24  CaMg3(CO3)4
  Kieserite        -6.69     -6.95   -0.27  MgSO4:H2O
  Labile_S        -24.63    -30.30   -5.67  Na4Ca(SO4)3:2H2O
  Leonhardite      -6.07     -6.95   -0.89  MgSO4:4H2O
  Magnesite        -0.80     -8.64   -7.83  MgCO3
  MgCl2_2H2O      -25.47    -10.91   14.56  MgCl2:2H2O
  MgCl2_4H2O      -17.89    -10.91    6.98  MgCl2:4H2O
  Mirabilite      -10.53    -11.77   -1.24  Na2SO4:10H2O
  Nahcolite        -5.81    -16.55  -10.74  NaHCO3
  Natron          -12.63    -13.45   -0.82  Na2CO3:10H2O
  Nesquehonite     -3.47     -8.64   -5.17  MgCO3:3H2O
  Pentahydrite     -5.67     -6.95   -1.28  MgSO4:5H2O
  Pirssonite      -12.67    -21.90   -9.23  Na2Ca(CO3)2:2H2O
  Portlandite     -11.60    -16.79   -5.19  Ca(OH)2
  Thenardite      -11.47    -11.77   -0.30  Na2SO4
  Trona           -18.61    -30.00  -11.38  Na3H(CO3)2:2H2O

**For a gas, SI = log10(fugacity). Fugacity = pressure * phi / 1 atm.
  For ideal gases, phi = 1.

Beginning of advection time step 200, cumulative pore volumes 200.000000.

Cell 1.

Using solution 1.	Solution after simulation 2.
Using exchange 1.	Exchange assemblage after simulation 3.
Using surface 1.	
Using pure phase assemblage 1.	Pure-phase assemblage after simulation 3.

-------------------------------Phase assemblage--------------------------------

                                                      Moles in assemblage
Phase               SI  log IAP  log K(T, P)   Initial       Final       Delta

Calcite          -0.01    -8.45     -8.44    0.000e+00           0   0.000e+00
Dolomite          0.00   -17.09    -17.09    1.587e+00   1.587e+00   1.212e-06

------------------------------Surface composition------------------------------

Diffuse Double Layer Surface-Complexation Model

Hfo           
	  3.384e-04  Surface charge, eq
	  1.814e-03  sigma, C/m²
	  7.882e-03  psi, V
	 -3.068e-01  -F*psi/RT
	  7.358e-01  exp(-F*psi/RT)
	  6.000e+02  specific area, m²/g
	  1.800e+04  m² for   3.000e+01 g


Hfo_w         
	  7.000e-02  moles
	                                   Mole                     Log
	Species               Moles    Fraction    Molality    Molality

	Hfo_wHCO3         5.086e-02       0.727   5.086e-02      -1.294
	Hfo_wOH2+         7.052e-03       0.101   7.052e-03      -2.152
	Hfo_wCO3-         6.598e-03       0.094   6.598e-03      -2.181
	Hfo_wOH           5.387e-03       0.077   5.387e-03      -2.269
	Hfo_wO-           9.428e-05       0.001   9.428e-05      -4.026
	Hfo_wOHSO4-2      8.041e-06       0.000   8.042e-06      -5.095
	Hfo_wSO4-         5.277e-06       0.000   5.277e-06      -5.278
	Hfo_wOCa+         5.675e-14       0.000   5.676e-14     -13.246
	Hfo_wOMg+         3.683e-14       0.000   3.683e-14     -13.434

-----------------------------Exchange composition------------------------------

X                1.000e+00 mol

	                               Equiv-    Equivalent      Log 
	Species             Moles      alents      Fraction     Gamma

	CaX2              3.524e-01   7.048e-01   7.048e-01    -0.174
	MgX2              1.471e-01   2.943e-01   2.943e-01    -0.182
	NaX               9.289e-04   9.289e-04   9.289e-04    -0.031

-----------------------------Solution composition------------------------------

	Elements           Molality       Moles

	C                 7.080e-03   7.079e-03
	Ca                1.949e-03   1.949e-03
	Cl                1.337e-04   1.337e-04
	Mg                1.292e-03   1.292e-03
	Na                1.227e-04   1.227e-04
	S                 2.351e-04   2.351e-04

----------------------------Description of solution----------------------------

                                       pH  =   7.040      Charge balance
                                       pe  =   4.000      Adjusted to redox equilibrium
      Specific Conductance (µS/cm,  25°C)  = 619
                          Density (g/cm³)  =   0.99747
                               Volume (L)  =   1.00304
                        Viscosity (mPa s)  =   0.89328
                        Activity of water  =   1.000
                 Ionic strength (mol/kgw)  =   1.008e-02
                       Mass of water (kg)  =   9.999e-01
                 Total alkalinity (eq/kg)  =   6.002e-03
                       Total CO2 (mol/kg)  =   7.080e-03
                         Temperature (°C)  =  25.00
                  Electrical balance (eq)  =   1.474e-08
 Percent error, 100*(Cat-|An|)/(Cat+|An|)  =   0.00
                               Iterations  =   8
                         Gamma iterations  =   3
                      Osmotic coefficient  =   0.94059
                         Density of water  =   0.99704
                                  Total H  = 1.110125e+02
                                  Total O  = 5.552433e+01

----------------------------Distribution of species----------------------------

                                                    MacInnes  MacInnes
                                MacInnes       Log       Log       Log    mole V
   Species          Molality    Activity  Molality  Activity     Gamma   cm³/mol

   OH-             1.259e-07   1.109e-07    -6.900    -6.955    -0.055     -4.03
   H+              1.018e-07   9.124e-08    -6.992    -7.040    -0.048      0.00
   H2O             5.551e+01   9.998e-01     1.744    -0.000     0.000     18.07
C(4)          7.080e-03
   HCO3-           5.989e-03   5.420e-03    -2.223    -2.266    -0.043     24.23
   CO2             1.084e-03   1.086e-03    -2.965    -2.964     0.001     34.79
   CO3-2           4.304e-06   2.720e-06    -5.366    -5.565    -0.199     -4.54
   MgCO3           1.954e-06   1.954e-06    -5.709    -5.709     0.000    -17.09
Ca            1.949e-03
   Ca+2            1.949e-03   1.306e-03    -2.710    -2.884    -0.174    -17.93
Cl            1.337e-04
   Cl-             1.337e-04   1.204e-04    -3.874    -3.919    -0.045     18.14
Mg            1.292e-03
   Mg+2            1.290e-03   8.477e-04    -2.889    -3.072    -0.182    -21.61
   MgCO3           1.954e-06   1.954e-06    -5.709    -5.709     0.000    -17.09
   MgOH+           1.610e-08   1.442e-08    -7.793    -7.841    -0.048     (0)  
Na            1.227e-04
   Na+             1.227e-04   1.143e-04    -3.911    -3.942    -0.031     -1.38
S(6)          2.351e-04
   SO4-2           2.351e-04   1.311e-04    -3.629    -3.883    -0.254     14.89
   HSO4-           1.285e-09   1.163e-09    -8.891    -8.935    -0.043     40.34

------------------------------Saturation indices-------------------------------

  Phase               SI** log IAP   log K(298 K,   1 atm)

  Anhydrite        -2.52     -6.77   -4.25  CaSO4
  Aragonite        -0.23     -8.45   -8.22  CaCO3
  Artinite         -6.95     12.71   19.66  Mg2CO3(OH)2:3H2O
  Bischofite      -15.50    -10.91    4.59  MgCl2:6H2O
  Bloedite        -16.37    -18.72   -2.35  Na2Mg(SO4)2:4H2O
  Brucite          -6.10    -16.98  -10.88  Mg(OH)2
  Burkeite        -36.21    -36.98   -0.77  Na6CO3(SO4)2
  Calcite          -0.01     -8.45   -8.44  CaCO3
  CO2(g)           -1.50     -2.96   -1.47  CO2
  Dolomite          0.00    -17.09  -17.09  CaMg(CO3)2
  Epsomite         -5.11     -6.95   -1.85  MgSO4:7H2O
  Gaylussite      -12.48    -21.90   -9.42  CaNa2(CO3)2:5H2O
  Glauberite      -13.18    -18.53   -5.35  Na2Ca(SO4)2
  Gypsum           -2.17     -6.77   -4.60  CaSO4:2H2O
  H2O(g)           -1.50     -0.00    1.50  H2O
  Halite           -9.44     -7.86    1.58  NaCl
  Hexahydrite      -5.39     -6.95   -1.57  MgSO4:6H2O
  Huntite          -3.25      7.00   10.24  CaMg3(CO3)4
  Kieserite        -6.69     -6.95   -0.27  MgSO4:H2O
  Labile_S        -24.63    -30.30   -5.67  Na4Ca(SO4)3:2H2O
  Leonhardite      -6.07     -6.95   -0.89  MgSO4:4H2O
  Magnesite        -0.80     -8.64   -7.83  MgCO3
  MgCl2_2H2O      -25.47    -10.91   14.56  MgCl2:2H2O
  MgCl2_4H2O      -17.89    -10.91    6.98  MgCl2:4H2O
  Mirabilite      -10.53    -11.77   -1.24  Na2SO4:10H2O
  Nahcolite        -5.81    -16.55  -10.74  NaHCO3
  Natron          -12.63    -13.45   -0.82  Na2CO3:10H2O
  Nesquehonite     -3.47     -8.64   -5.17  MgCO3:3H2O
  Pentahydrite     -5.67     -6.95   -1.28  MgSO4:5H2O
  Pirssonite      -12.67    -21.90   -9.23  Na2Ca(CO3)2:2H2O
  Portlandite     -11.60    -16.79   -5.19  Ca(OH)2
  Thenardite      -11.47    -11.77   -0.30  Na2SO4
  Trona           -18.61    -30.00  -11.38  Na3H(CO3)2:2H2O

**For a gas, SI = log10(fugacity). Fugacity = pressure * phi / 1 atm.
  For ideal gases, phi = 1.

------------------
End of simulation.
------------------

------------------------------------
Reading input data for simulation 4.
------------------------------------

