WARNING: Database file from DATABASE keyword is used; command line argument ignored.
   Input file: ex5
  Output file: ex5.out
Database file: ../database/phreeqc.dat

------------------
Reading data base.
------------------

	SOLUTION_MASTER_SPECIES
	SOLUTION_SPECIES
	PHASES
	GAS_BINARY_PARAMETERS
	EXCHANGE_MASTER_SPECIES
	EXCHANGE_SPECIES
	SURFACE_MASTER_SPECIES
	SURFACE_SPECIES
	MEAN_GAMMAS
	RATES
	END
------------------------------------
Reading input data for simulation 1.
------------------------------------

	DATABASE ../database/phreeqc.dat
	SELECTED_OUTPUT 101
	    file                 ex5_101.sel
	USER_PUNCH 101
	    headings Mu SC
	    start
	10 PUNCH STR_F$(MU, 20, 12)
	20 PUNCH STR_F$(SC, 20, 10)
	    end
	knobs
		logfile
	TITLE Example 5.--Add oxygen, equilibrate with pyrite, calcite, and goethite.
	SOLUTION 1  PURE WATER
	        pH      7.0
	        temp    25.0
	EQUILIBRIUM_PHASES 1
	        Pyrite          0.0
	        Goethite        0.0
	        Calcite         0.0
	        Gypsum          0.0     0.0
	REACTION 1
	        O2      1.0
	        0.0     0.001   0.005   0.01    0.05
	SELECTED_OUTPUT
	        file   ex5.pun
	        si     CO2(g)  Gypsum
	        equilibrium_phases  pyrite goethite calcite gypsum
	END
-----
TITLE
-----

 Example 5.--Add oxygen, equilibrate with pyrite, calcite, and goethite.

-------------------------------------------
Beginning of initial solution calculations.
-------------------------------------------

Initial solution 1.	PURE WATER

-----------------------------Solution composition------------------------------

	Elements           Molality       Moles

	Pure water     

----------------------------Description of solution----------------------------

                                       pH  =   7.000    
                                       pe  =   4.000    
      Specific Conductance (µS/cm,  25°C)  = 0
                          Density (g/cm³)  =   0.99704
                               Volume (L)  =   1.00297
                        Viscosity (mPa s)  =   0.89002
                        Activity of water  =   1.000
                 Ionic strength (mol/kgw)  =   1.007e-07
                       Mass of water (kg)  =   1.000e+00
                 Total alkalinity (eq/kg)  =   1.217e-09
                         Temperature (°C)  =  25.00
                  Electrical balance (eq)  =  -1.217e-09
 Percent error, 100*(Cat-|An|)/(Cat+|An|)  =  -0.60
                               Iterations  =   0
                                  Total H  = 1.110124e+02
                                  Total O  = 5.550622e+01

----------------------------Distribution of species----------------------------

                                               Log       Log       Log    mole V
   Species          Molality    Activity  Molality  Activity     Gamma   cm³/mol

   OH-             1.013e-07   1.012e-07    -6.995    -6.995    -0.000     -4.14
   H+              1.001e-07   1.000e-07    -7.000    -7.000    -0.000      0.00
   H2O             5.551e+01   1.000e+00     1.744     0.000     0.000     18.07
H(0)          1.416e-25
   H2              7.079e-26   7.079e-26   -25.150   -25.150     0.000     14.99
O(0)          0.000e+00
   O2              0.000e+00   0.000e+00   -42.063   -42.063     0.000     30.40

------------------------------Saturation indices-------------------------------

  Phase               SI** log IAP   log K(298 K,   1 atm)

  H2(g)           -22.05    -25.15   -3.10  H2
  H2O(g)           -1.50      0.00    1.50  H2O
  O2(g)           -39.17    -42.06   -2.89  O2

**For a gas, SI = log10(fugacity). Fugacity = pressure * phi / 1 atm.
  For ideal gases, phi = 1.

-----------------------------------------
Beginning of batch-reaction calculations.
-----------------------------------------

Reaction step 1.

Using solution 1.	PURE WATER
Using pure phase assemblage 1.	
Using reaction 1.	

Reaction 1.	

	  0.000e+00 moles of the following reaction have been added:

	                 Relative
	Reactant            moles

	O2                   1.00000

	                 Relative
	Element             moles
	O                    2.00000

-------------------------------Phase assemblage--------------------------------

                                                      Moles in assemblage
Phase               SI  log IAP  log K(T, P)   Initial       Final       Delta

Calcite           0.00    -8.45     -8.45    1.000e+01   1.000e+01  -1.270e-04
Goethite         -0.00    -1.00     -1.00    1.000e+01   1.000e+01   1.503e-07
Gypsum           -6.30   -10.85     -4.55    0.000e+00           0   0.000e+00
Pyrite           -0.00   -18.48    -18.48    1.000e+01   1.000e+01  -1.503e-07

-----------------------------Solution composition------------------------------

	Elements           Molality       Moles

	C                 1.270e-04   1.270e-04
	Ca                1.270e-04   1.270e-04
	Fe                8.178e-11   8.178e-11
	S                 3.007e-07   3.007e-07

----------------------------Description of solution----------------------------

                                       pH  =   9.915      Charge balance
                                       pe  =  -6.958      Adjusted to redox equilibrium
      Specific Conductance (µS/cm,  25°C)  = 37
                          Density (g/cm³)  =   0.99706
                               Volume (L)  =   1.00296
                        Viscosity (mPa s)  =   0.89034
                        Activity of water  =   1.000
                 Ionic strength (mol/kgw)  =   3.983e-04
                       Mass of water (kg)  =   1.000e+00
                 Total alkalinity (eq/kg)  =   2.538e-04
                       Total CO2 (mol/kg)  =   1.269e-04
                         Temperature (°C)  =  25.00
                  Electrical balance (eq)  =  -1.217e-09
 Percent error, 100*(Cat-|An|)/(Cat+|An|)  =  -0.00
                               Iterations  =  17
                                  Total H  = 1.110124e+02
                                  Total O  = 5.550660e+01

----------------------------Distribution of species----------------------------

                                               Log       Log       Log    mole V
   Species          Molality    Activity  Molality  Activity     Gamma   cm³/mol

   OH-             8.525e-05   8.332e-05    -4.069    -4.079    -0.010     -4.12
   H+              1.242e-10   1.215e-10    -9.906    -9.915    -0.010      0.00
   H2O             5.551e+01   1.000e+00     1.744    -0.000     0.000     18.07
C(-4)         1.238e-07
   CH4             1.238e-07   1.238e-07    -6.907    -6.907     0.000     35.46
C(4)          1.269e-04
   HCO3-           8.555e-05   8.364e-05    -4.068    -4.078    -0.010     24.54
   CO3-2           3.535e-05   3.229e-05    -4.452    -4.491    -0.039     -4.73
   CaCO3           5.988e-06   5.989e-06    -5.223    -5.223     0.000    -14.60
   CO2             2.284e-08   2.284e-08    -7.641    -7.641     0.000     34.79
   FeCO3           1.321e-11   1.321e-11   -10.879   -10.879     0.000     (0)  
   CaHCO3+         8.281e-13   8.097e-13   -12.082   -12.092    -0.010      9.66
   FeHCO3+         1.460e-13   1.427e-13   -12.836   -12.846    -0.010     (0)  
   (CO2)2          8.483e-18   8.484e-18   -17.071   -17.071     0.000     68.75
Ca            1.270e-04
   Ca+2            1.209e-04   1.104e-04    -3.918    -3.957    -0.039    -18.18
   CaCO3           5.988e-06   5.989e-06    -5.223    -5.223     0.000    -14.60
   CaOH+           1.543e-07   1.508e-07    -6.812    -6.821    -0.010     (0)  
   CaSO4           1.981e-09   1.981e-09    -8.703    -8.703     0.000      7.22
   CaHCO3+         8.281e-13   8.097e-13   -12.082   -12.092    -0.010      9.66
   CaHSO4+         2.063e-18   2.016e-18   -17.685   -17.695    -0.010     (0)  
Fe(2)         8.154e-11
   FeOH+           4.543e-11   4.441e-11   -10.343   -10.353    -0.010     (0)  
   Fe+2            1.867e-11   1.706e-11   -10.729   -10.768    -0.039    -22.18
   FeCO3           1.321e-11   1.321e-11   -10.879   -10.879     0.000     (0)  
   Fe(OH)2         3.111e-12   3.111e-12   -11.507   -11.507     0.000     (0)  
   Fe(OH)3-        9.734e-13   9.516e-13   -12.012   -12.022    -0.010     (0)  
   FeHCO3+         1.460e-13   1.427e-13   -12.836   -12.846    -0.010     (0)  
   FeSO4           3.901e-16   3.902e-16   -15.409   -15.409     0.000     30.28
   Fe(HS)2         3.605e-16   3.605e-16   -15.443   -15.443     0.000     (0)  
   Fe(HS)3-        6.185e-21   6.045e-21   -20.209   -20.219    -0.010     (0)  
   FeHSO4+         3.188e-25   3.116e-25   -24.497   -24.506    -0.010     (0)  
Fe(3)         2.391e-13
   Fe(OH)4-        2.115e-13   2.068e-13   -12.675   -12.685    -0.010     (0)  
   Fe(OH)3         2.754e-14   2.754e-14   -13.560   -13.560     0.000     (0)  
   Fe(OH)2+        2.657e-17   2.597e-17   -16.576   -16.585    -0.010     (0)  
   FeOH+2          1.043e-23   9.528e-24   -22.982   -23.021    -0.039     (0)  
   Fe+3            2.188e-31   1.793e-31   -30.660   -30.746    -0.087     (0)  
   FeSO4+          2.586e-34   2.528e-34   -33.587   -33.597    -0.010     (0)  
   Fe(SO4)2-       7.278e-40   7.113e-40   -39.138   -39.148    -0.010     (0)  
   FeHSO4+2        0.000e+00   0.000e+00   -43.045   -43.085    -0.040     (0)  
   Fe2(OH)2+4      0.000e+00   0.000e+00   -44.453   -44.612    -0.159     (0)  
   Fe3(OH)4+5      0.000e+00   0.000e+00   -58.629   -58.877    -0.248     (0)  
H(0)          1.725e-09
   H2              8.627e-10   8.628e-10    -9.064    -9.064     0.000     14.99
O(0)          0.000e+00
   O2              0.000e+00   0.000e+00   -74.234   -74.234     0.000     30.40
S(-2)         1.579e-07
   HS-             1.575e-07   1.540e-07    -6.803    -6.813    -0.010     20.59
   S-2             1.676e-10   1.531e-10    -9.776    -9.815    -0.039     (0)  
   H2S             1.635e-10   1.636e-10    -9.786    -9.786     0.000     36.27
   Fe(HS)2         3.605e-16   3.605e-16   -15.443   -15.443     0.000     (0)  
   Fe(HS)3-        6.185e-21   6.045e-21   -20.209   -20.219    -0.010     (0)  
   (H2S)2          1.409e-21   1.410e-21   -20.851   -20.851     0.000     30.09
S(6)          1.428e-07
   SO4-2           1.408e-07   1.286e-07    -6.851    -6.891    -0.039     14.50
   CaSO4           1.981e-09   1.981e-09    -8.703    -8.703     0.000      7.22
   HSO4-           1.554e-15   1.519e-15   -14.809   -14.818    -0.010     40.27
   FeSO4           3.901e-16   3.902e-16   -15.409   -15.409     0.000     30.28
   CaHSO4+         2.063e-18   2.016e-18   -17.685   -17.695    -0.010     (0)  
   FeHSO4+         3.188e-25   3.116e-25   -24.497   -24.506    -0.010     (0)  
   FeSO4+          2.586e-34   2.528e-34   -33.587   -33.597    -0.010     (0)  
   Fe(SO4)2-       7.278e-40   7.113e-40   -39.138   -39.148    -0.010     (0)  
   FeHSO4+2        0.000e+00   0.000e+00   -43.045   -43.085    -0.040     (0)  

------------------------------Saturation indices-------------------------------

  Phase               SI** log IAP   log K(298 K,   1 atm)

  Anhydrite        -6.53    -10.85   -4.31  CaSO4
  Aragonite        -0.11     -8.45   -8.34  CaCO3
  Calcite           0.00     -8.45   -8.45  CaCO3
  CH4(g)           -4.11     -6.91   -2.80  CH4
  CO2(g)           -6.17     -7.64   -1.47  CO2
  Fe(OH)3(a)       -5.89     -1.00    4.89  Fe(OH)3
  FeS(ppt)         -3.75     -7.67   -3.92  FeS
  Goethite         -0.00     -1.00   -1.00  FeOOH
  Gypsum           -6.30    -10.85   -4.55  CaSO4:2H2O
  H2(g)            -5.96     -9.06   -3.10  H2
  H2O(g)           -1.50     -0.00    1.50  H2O
  H2S(g)           -8.79    -16.73   -7.94  H2S
  Hematite          2.01     -2.00   -4.01  Fe2O3
  Mackinawite      -3.02     -7.67   -4.65  FeS
  Melanterite     -15.45    -17.66   -2.21  FeSO4:7H2O
  O2(g)           -71.34    -74.23   -2.89  O2
  Pyrite           -0.00    -18.48  -18.48  FeS2
  Siderite         -4.37    -15.26  -10.89  FeCO3
  Sulfur           -8.75     -3.87    4.88  S

**For a gas, SI = log10(fugacity). Fugacity = pressure * phi / 1 atm.
  For ideal gases, phi = 1.

Reaction step 2.

Using solution 1.	PURE WATER
Using pure phase assemblage 1.	
Using reaction 1.	

Reaction 1.	

	  1.000e-03 moles of the following reaction have been added:

	                 Relative
	Reactant            moles

	O2                   1.00000

	                 Relative
	Element             moles
	O                    2.00000

-------------------------------Phase assemblage--------------------------------

                                                      Moles in assemblage
Phase               SI  log IAP  log K(T, P)   Initial       Final       Delta

Calcite           0.00    -8.45     -8.45    1.000e+01   9.999e+00  -1.058e-03
Goethite         -0.00    -1.00     -1.00    1.000e+01   1.000e+01   2.666e-04
Gypsum           -1.98    -6.52     -4.55    0.000e+00           0   0.000e+00
Pyrite           -0.00   -18.48    -18.48    1.000e+01   1.000e+01  -2.667e-04

-----------------------------Solution composition------------------------------

	Elements           Molality       Moles

	C                 1.058e-03   1.058e-03
	Ca                1.058e-03   1.058e-03
	Fe                1.938e-08   1.938e-08
	S                 5.333e-04   5.333e-04

----------------------------Description of solution----------------------------

                                       pH  =   8.003      Charge balance
                                       pe  =  -4.073      Adjusted to redox equilibrium
      Specific Conductance (µS/cm,  25°C)  = 238
                          Density (g/cm³)  =   0.99719
                               Volume (L)  =   1.00297
                        Viscosity (mPa s)  =   0.89142
                        Activity of water  =   1.000
                 Ionic strength (mol/kgw)  =   3.529e-03
                       Mass of water (kg)  =   1.000e+00
                 Total alkalinity (eq/kg)  =   1.050e-03
                       Total CO2 (mol/kg)  =   1.058e-03
                         Temperature (°C)  =  25.00
                  Electrical balance (eq)  =  -1.217e-09
 Percent error, 100*(Cat-|An|)/(Cat+|An|)  =  -0.00
                               Iterations  =  23
                                  Total H  = 1.110122e+02
                                  Total O  = 5.551086e+01

----------------------------Distribution of species----------------------------

                                               Log       Log       Log    mole V
   Species          Molality    Activity  Molality  Activity     Gamma   cm³/mol

   OH-             1.088e-06   1.019e-06    -5.963    -5.992    -0.028     -4.08
   H+              1.054e-08   9.931e-09    -7.977    -8.003    -0.026      0.00
   H2O             5.551e+01   1.000e+00     1.744    -0.000     0.000     18.07
C(-4)         1.916e-12
   CH4             1.916e-12   1.918e-12   -11.718   -11.717     0.000     35.46
C(4)          1.058e-03
   HCO3-           1.025e-03   9.622e-04    -2.989    -3.017    -0.027     24.61
   CO2             2.147e-05   2.148e-05    -4.668    -4.668     0.000     34.79
   CaCO3           5.984e-06   5.989e-06    -5.223    -5.223     0.000    -14.60
   CO3-2           5.848e-06   4.544e-06    -5.233    -5.343    -0.110     -4.54
   FeCO3           1.322e-09   1.323e-09    -8.879    -8.879     0.000     (0)  
   FeHCO3+         1.246e-09   1.168e-09    -8.905    -8.933    -0.028     (0)  
   CaHCO3+         7.045e-11   6.619e-11   -10.152   -10.179    -0.027      9.69
   (CO2)2          7.500e-12   7.504e-12   -11.125   -11.125     0.000     68.75
Ca            1.058e-03
   Ca+2            1.010e-03   7.846e-04    -2.996    -3.105    -0.110    -18.05
   CaSO4           4.170e-05   4.171e-05    -4.380    -4.380     0.000      7.22
   CaCO3           5.984e-06   5.989e-06    -5.223    -5.223     0.000    -14.60
   CaOH+           1.399e-08   1.311e-08    -7.854    -7.882    -0.028     (0)  
   CaHCO3+         7.045e-11   6.619e-11   -10.152   -10.179    -0.027      9.69
   CaHSO4+         3.703e-12   3.472e-12   -11.431   -11.459    -0.028     (0)  
Fe(2)         1.938e-08
   Fe+2            1.558e-08   1.214e-08    -7.807    -7.916    -0.108    -22.05
   FeCO3           1.322e-09   1.323e-09    -8.879    -8.879     0.000     (0)  
   FeHCO3+         1.246e-09   1.168e-09    -8.905    -8.933    -0.028     (0)  
   FeSO4           8.219e-10   8.225e-10    -9.085    -9.085     0.000     30.28
   FeOH+           4.118e-10   3.864e-10    -9.385    -9.413    -0.028     (0)  
   Fe(OH)2         3.309e-13   3.312e-13   -12.480   -12.480     0.000     (0)  
   Fe(OH)3-        1.320e-15   1.239e-15   -14.879   -14.907    -0.028     (0)  
   FeHSO4+         5.728e-17   5.369e-17   -16.242   -16.270    -0.028     (0)  
   Fe(HS)2         4.081e-18   4.084e-18   -17.389   -17.389     0.000     (0)  
   Fe(HS)3-        2.915e-25   2.733e-25   -24.535   -24.563    -0.028     (0)  
Fe(3)         3.247e-14
   Fe(OH)3         2.752e-14   2.754e-14   -13.560   -13.560     0.000     (0)  
   Fe(OH)4-        2.694e-15   2.529e-15   -14.570   -14.597    -0.027     (0)  
   Fe(OH)2+        2.262e-15   2.123e-15   -14.646   -14.673    -0.027     (0)  
   FeOH+2          8.211e-20   6.368e-20   -19.086   -19.196    -0.110     (0)  
   FeSO4+          4.362e-25   4.094e-25   -24.360   -24.388    -0.028     (0)  
   Fe+3            1.671e-25   9.795e-26   -24.777   -25.009    -0.232     (0)  
   Fe(SO4)2-       3.641e-27   3.413e-27   -26.439   -26.467    -0.028     (0)  
   FeHSO4+2        1.410e-32   1.089e-32   -31.851   -31.963    -0.112     (0)  
   Fe2(OH)2+4      3.069e-37   1.091e-37   -36.513   -36.962    -0.449     (0)  
   Fe3(OH)4+5      0.000e+00   0.000e+00   -48.614   -49.315    -0.701     (0)  
H(0)          1.953e-11
   H2              9.766e-12   9.774e-12   -11.010   -11.010     0.000     14.99
O(0)          0.000e+00
   O2              0.000e+00   0.000e+00   -70.343   -70.343     0.000     30.40
S(-2)         7.093e-10
   HS-             6.560e-10   6.145e-10    -9.183    -9.211    -0.028     20.63
   H2S             5.331e-11   5.336e-11   -10.273   -10.273     0.000     36.27
   S-2             9.637e-15   7.473e-15   -14.016   -14.126    -0.110     (0)  
   Fe(HS)2         4.081e-18   4.084e-18   -17.389   -17.389     0.000     (0)  
   (H2S)2          1.499e-22   1.500e-22   -21.824   -21.824     0.000     30.09
   Fe(HS)3-        2.915e-25   2.733e-25   -24.535   -24.563    -0.028     (0)  
S(6)          5.333e-04
   SO4-2           4.916e-04   3.811e-04    -3.308    -3.419    -0.111     14.60
   CaSO4           4.170e-05   4.171e-05    -4.380    -4.380     0.000      7.22
   FeSO4           8.219e-10   8.225e-10    -9.085    -9.085     0.000     30.28
   HSO4-           3.926e-10   3.680e-10    -9.406    -9.434    -0.028     40.30
   CaHSO4+         3.703e-12   3.472e-12   -11.431   -11.459    -0.028     (0)  
   FeHSO4+         5.728e-17   5.369e-17   -16.242   -16.270    -0.028     (0)  
   FeSO4+          4.362e-25   4.094e-25   -24.360   -24.388    -0.028     (0)  
   Fe(SO4)2-       3.641e-27   3.413e-27   -26.439   -26.467    -0.028     (0)  
   FeHSO4+2        1.410e-32   1.089e-32   -31.851   -31.963    -0.112     (0)  

------------------------------Saturation indices-------------------------------

  Phase               SI** log IAP   log K(298 K,   1 atm)

  Anhydrite        -2.21     -6.52   -4.31  CaSO4
  Aragonite        -0.11     -8.45   -8.34  CaCO3
  Calcite           0.00     -8.45   -8.45  CaCO3
  CH4(g)           -8.92    -11.72   -2.80  CH4
  CO2(g)           -3.20     -4.67   -1.47  CO2
  Fe(OH)3(a)       -5.89     -1.00    4.89  Fe(OH)3
  FeS(ppt)         -5.21     -9.12   -3.92  FeS
  Goethite         -0.00     -1.00   -1.00  FeOOH
  Gypsum           -1.98     -6.52   -4.55  CaSO4:2H2O
  H2(g)            -7.91    -11.01   -3.10  H2
  H2O(g)           -1.50     -0.00    1.50  H2O
  H2S(g)           -9.28    -17.21   -7.94  H2S
  Hematite          2.01     -2.00   -4.01  Fe2O3
  Mackinawite      -4.48     -9.12   -4.65  FeS
  Melanterite      -9.13    -11.33   -2.21  FeSO4:7H2O
  O2(g)           -67.45    -70.34   -2.89  O2
  Pyrite           -0.00    -18.48  -18.48  FeS2
  Siderite         -2.37    -13.26  -10.89  FeCO3
  Sulfur           -7.29     -2.41    4.88  S

**For a gas, SI = log10(fugacity). Fugacity = pressure * phi / 1 atm.
  For ideal gases, phi = 1.

Reaction step 3.

Using solution 1.	PURE WATER
Using pure phase assemblage 1.	
Using reaction 1.	

Reaction 1.	

	  5.000e-03 moles of the following reaction have been added:

	                 Relative
	Reactant            moles

	O2                   1.00000

	                 Relative
	Element             moles
	O                    2.00000

-------------------------------Phase assemblage--------------------------------

                                                      Moles in assemblage
Phase               SI  log IAP  log K(T, P)   Initial       Final       Delta

Calcite           0.00    -8.45     -8.45    1.000e+01   9.995e+00  -4.524e-03
Goethite          0.00    -1.00     -1.00    1.000e+01   1.000e+01   1.332e-03
Gypsum           -0.91    -5.46     -4.55    0.000e+00           0   0.000e+00
Pyrite            0.00   -18.48    -18.48    1.000e+01   9.999e+00  -1.333e-03

-----------------------------Solution composition------------------------------

	Elements           Molality       Moles

	C                 4.525e-03   4.524e-03
	Ca                4.525e-03   4.524e-03
	Fe                1.475e-06   1.475e-06
	S                 2.667e-03   2.667e-03

----------------------------Description of solution----------------------------

                                       pH  =   6.958      Charge balance
                                       pe  =  -2.676      Adjusted to redox equilibrium
      Specific Conductance (µS/cm,  25°C)  = 915
                          Density (g/cm³)  =   0.99766
                               Volume (L)  =   1.00300
                        Viscosity (mPa s)  =   0.89404
                        Activity of water  =   1.000
                 Ionic strength (mol/kgw)  =   1.430e-02
                       Mass of water (kg)  =   1.000e+00
                 Total alkalinity (eq/kg)  =   3.718e-03
                       Total CO2 (mol/kg)  =   4.525e-03
                         Temperature (°C)  =  25.00
                  Electrical balance (eq)  =  -1.217e-09
 Percent error, 100*(Cat-|An|)/(Cat+|An|)  =  -0.00
                               Iterations  =  24
                                  Total H  = 1.110111e+02
                                  Total O  = 5.552713e+01

----------------------------Distribution of species----------------------------

                                               Log       Log       Log    mole V
   Species          Molality    Activity  Molality  Activity     Gamma   cm³/mol

   H+              1.221e-07   1.101e-07    -6.913    -6.958    -0.045      0.00
   OH-             1.040e-07   9.193e-08    -6.983    -7.037    -0.054     -4.01
   H2O             5.551e+01   9.998e-01     1.744    -0.000     0.000     18.07
C(-4)         1.100e-13
   CH4             1.100e-13   1.104e-13   -12.959   -12.957     0.001     35.46
C(4)          4.525e-03
   HCO3-           3.702e-03   3.298e-03    -2.432    -2.482    -0.050     24.75
   CO2             8.145e-04   8.163e-04    -3.089    -3.088     0.001     34.79
   CaCO3           5.969e-06   5.989e-06    -5.224    -5.223     0.001    -14.60
   CO3-2           2.233e-06   1.405e-06    -5.651    -5.852    -0.201     -4.26
   FeHCO3+         2.464e-07   2.185e-07    -6.608    -6.661    -0.052     (0)  
   FeCO3           2.225e-08   2.232e-08    -7.653    -7.651     0.001     (0)  
   (CO2)2          1.081e-08   1.083e-08    -7.966    -7.965     0.001     68.75
   CaHCO3+         8.220e-10   7.337e-10    -9.085    -9.134    -0.049      9.73
Ca            4.525e-03
   Ca+2            4.036e-03   2.538e-03    -2.394    -2.596    -0.202    -17.87
   CaSO4           4.822e-04   4.829e-04    -3.317    -3.316     0.001      7.22
   CaCO3           5.969e-06   5.989e-06    -5.224    -5.223     0.001    -14.60
   CaOH+           4.315e-09   3.825e-09    -8.365    -8.417    -0.052     (0)  
   CaHCO3+         8.220e-10   7.337e-10    -9.085    -9.134    -0.049      9.73
   CaHSO4+         5.025e-10   4.455e-10    -9.299    -9.351    -0.052     (0)  
Fe(2)         1.475e-06
   Fe+2            1.044e-06   6.625e-07    -5.981    -6.179    -0.197    -21.88
   FeHCO3+         2.464e-07   2.185e-07    -6.608    -6.661    -0.052     (0)  
   FeSO4           1.602e-07   1.607e-07    -6.795    -6.794     0.001     30.28
   FeCO3           2.225e-08   2.232e-08    -7.653    -7.651     0.001     (0)  
   FeOH+           2.140e-09   1.903e-09    -8.670    -8.721    -0.051     (0)  
   Fe(OH)2         1.466e-13   1.471e-13   -12.834   -12.832     0.001     (0)  
   FeHSO4+         1.312e-13   1.163e-13   -12.882   -12.934    -0.052     (0)  
   Fe(OH)3-        5.581e-17   4.963e-17   -16.253   -16.304    -0.051     (0)  
   Fe(HS)2         8.030e-19   8.056e-19   -18.095   -18.094     0.001     (0)  
   Fe(HS)3-        3.655e-27   3.241e-27   -26.437   -26.489    -0.052     (0)  
Fe(3)         5.414e-14
   Fe(OH)3         2.745e-14   2.754e-14   -13.562   -13.560     0.001     (0)  
   Fe(OH)2+        2.643e-14   2.354e-14   -13.578   -13.628    -0.050     (0)  
   Fe(OH)4-        2.561e-16   2.281e-16   -15.592   -15.642    -0.050     (0)  
   FeOH+2          1.251e-17   7.826e-18   -16.903   -17.106    -0.204     (0)  
   FeSO4+          2.245e-21   1.996e-21   -20.649   -20.700    -0.051     (0)  
   Fe+3            3.395e-22   1.335e-22   -21.469   -21.875    -0.406     (0)  
   Fe(SO4)2-       6.720e-23   5.958e-23   -22.173   -22.225    -0.052     (0)  
   FeHSO4+2        9.525e-28   5.884e-28   -27.021   -27.230    -0.209     (0)  
   Fe2(OH)2+4      1.131e-32   1.648e-33   -31.946   -32.783    -0.837     (0)  
   Fe3(OH)4+5      0.000e+00   0.000e+00   -42.784   -44.091    -1.307     (0)  
H(0)          3.843e-12
   H2              1.921e-12   1.928e-12   -11.716   -11.715     0.002     14.99
O(0)          0.000e+00
   O2              0.000e+00   0.000e+00   -68.934   -68.933     0.001     30.40
S(-2)         7.723e-11
   HS-             4.179e-11   3.694e-11   -10.379   -10.433    -0.054     20.69
   H2S             3.544e-11   3.555e-11   -10.451   -10.449     0.001     36.27
   S-2             6.481e-17   4.053e-17   -16.188   -16.392    -0.204     (0)  
   Fe(HS)2         8.030e-19   8.056e-19   -18.095   -18.094     0.001     (0)  
   (H2S)2          6.639e-23   6.661e-23   -22.178   -22.176     0.001     30.09
   Fe(HS)3-        3.655e-27   3.241e-27   -26.437   -26.489    -0.052     (0)  
S(6)          2.667e-03
   SO4-2           2.185e-03   1.364e-03    -2.661    -2.865    -0.204     14.73
   CaSO4           4.822e-04   4.829e-04    -3.317    -3.316     0.001      7.22
   FeSO4           1.602e-07   1.607e-07    -6.795    -6.794     0.001     30.28
   HSO4-           1.647e-08   1.460e-08    -7.783    -7.836    -0.052     40.36
   CaHSO4+         5.025e-10   4.455e-10    -9.299    -9.351    -0.052     (0)  
   FeHSO4+         1.312e-13   1.163e-13   -12.882   -12.934    -0.052     (0)  
   FeSO4+          2.245e-21   1.996e-21   -20.649   -20.700    -0.051     (0)  
   Fe(SO4)2-       6.720e-23   5.958e-23   -22.173   -22.225    -0.052     (0)  
   FeHSO4+2        9.525e-28   5.884e-28   -27.021   -27.230    -0.209     (0)  

------------------------------Saturation indices-------------------------------

  Phase               SI** log IAP   log K(298 K,   1 atm)

  Anhydrite        -1.15     -5.46   -4.31  CaSO4
  Aragonite        -0.11     -8.45   -8.34  CaCO3
  Calcite           0.00     -8.45   -8.45  CaCO3
  CH4(g)          -10.16    -12.96   -2.80  CH4
  CO2(g)           -1.62     -3.09   -1.47  CO2
  Fe(OH)3(a)       -5.89     -1.00    4.89  Fe(OH)3
  FeS(ppt)         -5.74     -9.65   -3.92  FeS
  Goethite          0.00     -1.00   -1.00  FeOOH
  Gypsum           -0.91     -5.46   -4.55  CaSO4:2H2O
  H2(g)            -8.62    -11.71   -3.10  H2
  H2O(g)           -1.50     -0.00    1.50  H2O
  H2S(g)           -9.45    -17.39   -7.94  H2S
  Hematite          2.01     -2.00   -4.01  Fe2O3
  Mackinawite      -5.01     -9.65   -4.65  FeS
  Melanterite      -6.84     -9.04   -2.21  FeSO4:7H2O
  O2(g)           -66.04    -68.93   -2.89  O2
  Pyrite            0.00    -18.48  -18.48  FeS2
  Siderite         -1.14    -12.03  -10.89  FeCO3
  Sulfur           -6.77     -1.88    4.88  S

**For a gas, SI = log10(fugacity). Fugacity = pressure * phi / 1 atm.
  For ideal gases, phi = 1.

Reaction step 4.

Using solution 1.	PURE WATER
Using pure phase assemblage 1.	
Using reaction 1.	

Reaction 1.	

	  1.000e-02 moles of the following reaction have been added:

	                 Relative
	Reactant            moles

	O2                   1.00000

	                 Relative
	Element             moles
	O                    2.00000

-------------------------------Phase assemblage--------------------------------

                                                      Moles in assemblage
Phase               SI  log IAP  log K(T, P)   Initial       Final       Delta

Calcite           0.00    -8.45     -8.45    1.000e+01   9.992e+00  -8.086e-03
Goethite          0.00    -1.00     -1.00    1.000e+01   1.000e+01   2.661e-03
Gypsum           -0.51    -5.06     -4.55    0.000e+00           0   0.000e+00
Pyrite            0.00   -18.48    -18.48    1.000e+01   9.997e+00  -2.667e-03

-----------------------------Solution composition------------------------------

	Elements           Molality       Moles

	C                 8.087e-03   8.086e-03
	Ca                8.087e-03   8.086e-03
	Fe                6.603e-06   6.603e-06
	S                 5.335e-03   5.334e-03

----------------------------Description of solution----------------------------

                                       pH  =   6.617      Charge balance
                                       pe  =  -2.214      Adjusted to redox equilibrium
      Specific Conductance (µS/cm,  25°C)  = 1535
                          Density (g/cm³)  =   0.99815
                               Volume (L)  =   1.00307
                        Viscosity (mPa s)  =   0.89631
                        Activity of water  =   1.000
                 Ionic strength (mol/kgw)  =   2.470e-02
                       Mass of water (kg)  =   9.999e-01
                 Total alkalinity (eq/kg)  =   5.518e-03
                       Total CO2 (mol/kg)  =   8.087e-03
                         Temperature (°C)  =  25.00
                  Electrical balance (eq)  =  -1.217e-09
 Percent error, 100*(Cat-|An|)/(Cat+|An|)  =  -0.00
                               Iterations  =  24
                                  Total H  = 1.110098e+02
                                  Total O  = 5.554516e+01

----------------------------Distribution of species----------------------------

                                               Log       Log       Log    mole V
   Species          Molality    Activity  Molality  Activity     Gamma   cm³/mol

   H+              2.737e-07   2.413e-07    -6.563    -6.617    -0.055      0.00
   OH-             4.903e-08   4.193e-08    -7.310    -7.377    -0.068     -3.96
   H2O             5.551e+01   9.997e-01     1.744    -0.000     0.000     18.07
C(-4)         3.763e-14
   CH4             3.763e-14   3.785e-14   -13.424   -13.422     0.002     35.46
C(4)          8.087e-03
   HCO3-           5.502e-03   4.764e-03    -2.259    -2.322    -0.062     24.85
   CO2             2.576e-03   2.586e-03    -2.589    -2.587     0.002     34.79
   CaCO3           5.955e-06   5.989e-06    -5.225    -5.223     0.002    -14.60
   CO3-2           1.649e-06   9.259e-07    -5.783    -6.033    -0.251     -4.07
   FeHCO3+         1.336e-06   1.149e-06    -5.874    -5.940    -0.065     (0)  
   (CO2)2          1.083e-07   1.087e-07    -6.965    -6.964     0.002     68.75
   FeCO3           5.326e-08   5.357e-08    -7.274    -7.271     0.002     (0)  
   CaHCO3+         1.852e-09   1.608e-09    -8.732    -8.794    -0.061      9.76
Ca            8.087e-03
   Ca+2            6.859e-03   3.850e-03    -2.164    -2.415    -0.251    -17.77
   CaSO4           1.222e-03   1.225e-03    -2.913    -2.912     0.001      7.22
   CaCO3           5.955e-06   5.989e-06    -5.225    -5.223     0.002    -14.60
   CaOH+           3.078e-09   2.647e-09    -8.512    -8.577    -0.065     (0)  
   CaHSO4+         2.881e-09   2.477e-09    -8.541    -8.606    -0.065     (0)  
   CaHCO3+         1.852e-09   1.608e-09    -8.732    -8.794    -0.061      9.76
Fe(2)         6.603e-06
   Fe+2            4.238e-06   2.412e-06    -5.373    -5.618    -0.245    -21.78
   FeHCO3+         1.336e-06   1.149e-06    -5.874    -5.940    -0.065     (0)  
   FeSO4           9.727e-07   9.783e-07    -6.012    -6.010     0.002     30.28
   FeCO3           5.326e-08   5.357e-08    -7.274    -7.271     0.002     (0)  
   FeOH+           3.658e-09   3.159e-09    -8.437    -8.500    -0.064     (0)  
   FeHSO4+         1.804e-12   1.552e-12   -11.744   -11.809    -0.065     (0)  
   Fe(OH)2         1.108e-13   1.114e-13   -12.956   -12.953     0.002     (0)  
   Fe(OH)3-        1.985e-17   1.715e-17   -16.702   -16.766    -0.064     (0)  
   Fe(HS)2         4.595e-19   4.621e-19   -18.338   -18.335     0.002     (0)  
   Fe(HS)3-        8.579e-28   7.378e-28   -27.067   -27.132    -0.065     (0)  
Fe(3)         8.717e-14
   Fe(OH)2+        5.960e-14   5.159e-14   -13.225   -13.287    -0.063     (0)  
   Fe(OH)3         2.738e-14   2.753e-14   -13.563   -13.560     0.002     (0)  
   Fe(OH)4-        1.202e-16   1.040e-16   -15.920   -15.983    -0.063     (0)  
   FeOH+2          6.763e-17   3.761e-17   -16.170   -16.425    -0.255     (0)  
   FeSO4+          4.073e-20   3.517e-20   -19.390   -19.454    -0.064     (0)  
   Fe+3            4.371e-21   1.406e-21   -20.359   -20.852    -0.493     (0)  
   Fe(SO4)2-       2.041e-21   1.755e-21   -20.690   -20.756    -0.065     (0)  
   FeHSO4+2        4.154e-26   2.273e-26   -25.382   -25.643    -0.262     (0)  
   Fe2(OH)2+4      4.251e-31   3.807e-32   -30.371   -31.419    -1.048     (0)  
   Fe3(OH)4+5      0.000e+00   0.000e+00   -40.749   -42.387    -1.637     (0)  
H(0)          2.199e-12
   H2              1.099e-12   1.106e-12   -11.959   -11.956     0.003     14.99
O(0)          0.000e+00
   O2              0.000e+00   0.000e+00   -68.453   -68.450     0.002     30.40
S(-2)         4.790e-11
   H2S             3.076e-11   3.094e-11   -10.512   -10.510     0.002     36.27
   HS-             1.714e-11   1.466e-11   -10.766   -10.834    -0.068     20.72
   S-2             1.320e-17   7.339e-18   -16.879   -17.134    -0.255     (0)  
   Fe(HS)2         4.595e-19   4.621e-19   -18.338   -18.335     0.002     (0)  
   (H2S)2          5.014e-23   5.043e-23   -22.300   -22.297     0.002     30.09
   Fe(HS)3-        8.579e-28   7.378e-28   -27.067   -27.132    -0.065     (0)  
S(6)          5.335e-03
   SO4-2           4.112e-03   2.281e-03    -2.386    -2.642    -0.256     14.80
   CaSO4           1.222e-03   1.225e-03    -2.913    -2.912     0.001      7.22
   FeSO4           9.727e-07   9.783e-07    -6.012    -6.010     0.002     30.28
   HSO4-           6.223e-08   5.352e-08    -7.206    -7.271    -0.065     40.39
   CaHSO4+         2.881e-09   2.477e-09    -8.541    -8.606    -0.065     (0)  
   FeHSO4+         1.804e-12   1.552e-12   -11.744   -11.809    -0.065     (0)  
   FeSO4+          4.073e-20   3.517e-20   -19.390   -19.454    -0.064     (0)  
   Fe(SO4)2-       2.041e-21   1.755e-21   -20.690   -20.756    -0.065     (0)  
   FeHSO4+2        4.154e-26   2.273e-26   -25.382   -25.643    -0.262     (0)  

------------------------------Saturation indices-------------------------------

  Phase               SI** log IAP   log K(298 K,   1 atm)

  Anhydrite        -0.74     -5.06   -4.31  CaSO4
  Aragonite        -0.11     -8.45   -8.34  CaCO3
  Calcite           0.00     -8.45   -8.45  CaCO3
  CH4(g)          -10.62    -13.42   -2.80  CH4
  CO2(g)           -1.12     -2.59   -1.47  CO2
  Fe(OH)3(a)       -5.89     -1.00    4.89  Fe(OH)3
  FeS(ppt)         -5.92     -9.83   -3.92  FeS
  Goethite          0.00     -1.00   -1.00  FeOOH
  Gypsum           -0.51     -5.06   -4.55  CaSO4:2H2O
  H2(g)            -8.86    -11.96   -3.10  H2
  H2O(g)           -1.50     -0.00    1.50  H2O
  H2S(g)           -9.52    -17.45   -7.94  H2S
  Hematite          2.01     -2.00   -4.01  Fe2O3
  Mackinawite      -5.19     -9.83   -4.65  FeS
  Melanterite      -6.05     -8.26   -2.21  FeSO4:7H2O
  O2(g)           -65.56    -68.45   -2.89  O2
  Pyrite            0.00    -18.48  -18.48  FeS2
  Siderite         -0.76    -11.65  -10.89  FeCO3
  Sulfur           -6.59     -1.70    4.88  S

**For a gas, SI = log10(fugacity). Fugacity = pressure * phi / 1 atm.
  For ideal gases, phi = 1.

Reaction step 5.

Using solution 1.	PURE WATER
Using pure phase assemblage 1.	
Using reaction 1.	

Reaction 1.	

	  5.000e-02 moles of the following reaction have been added:

	                 Relative
	Reactant            moles

	O2                   1.00000

	                 Relative
	Element             moles
	O                    2.00000

-------------------------------Phase assemblage--------------------------------

                                                      Moles in assemblage
Phase               SI  log IAP  log K(T, P)   Initial       Final       Delta

Calcite           0.00    -8.45     -8.45    1.000e+01   9.967e+00  -3.268e-02
Goethite         -0.00    -1.00     -1.00    1.000e+01   1.001e+01   1.325e-02
Gypsum            0.00    -4.55     -4.55    0.000e+00   1.371e-02   1.371e-02
Pyrite           -0.00   -18.48    -18.48    1.000e+01   9.987e+00  -1.334e-02

-----------------------------Solution composition------------------------------

	Elements           Molality       Moles

	C                 3.270e-02   3.268e-02
	Ca                1.898e-02   1.897e-02
	Fe                9.203e-05   9.196e-05
	S                 1.298e-02   1.297e-02

----------------------------Description of solution----------------------------

                                       pH  =   6.038      Charge balance
                                       pe  =  -1.446      Adjusted to redox equilibrium
      Specific Conductance (µS/cm,  25°C)  = 3231
                          Density (g/cm³)  =   0.99978
                               Volume (L)  =   1.00316
                        Viscosity (mPa s)  =   0.90334
                        Activity of water  =   0.999
                 Ionic strength (mol/kgw)  =   5.434e-02
                       Mass of water (kg)  =   9.993e-01
                 Total alkalinity (eq/kg)  =   1.219e-02
                       Total CO2 (mol/kg)  =   3.270e-02
                         Temperature (°C)  =  25.00
                  Electrical balance (eq)  =  -1.217e-09
 Percent error, 100*(Cat-|An|)/(Cat+|An|)  =  -0.00
                               Iterations  =  25
                                  Total H  = 1.109443e+02
                                  Total O  = 5.559549e+01

----------------------------Distribution of species----------------------------

                                               Log       Log       Log    mole V
   Species          Molality    Activity  Molality  Activity     Gamma   cm³/mol

   H+              1.078e-06   9.169e-07    -5.967    -6.038    -0.070      0.00
   OH-             1.368e-08   1.103e-08    -7.864    -7.958    -0.094     -3.86
   H2O             5.551e+01   9.990e-01     1.744    -0.000     0.000     18.07
C(-4)         9.318e-15
   CH4             9.318e-15   9.435e-15   -14.031   -14.025     0.005     35.46
C(4)          3.270e-02
   CO2             2.050e-02   2.067e-02    -1.688    -1.685     0.004     34.79
   HCO3-           1.215e-02   1.002e-02    -1.916    -1.999    -0.084     25.09
   FeHCO3+         2.773e-05   2.264e-05    -4.557    -4.645    -0.088     (0)  
   (CO2)2          6.892e-06   6.949e-06    -5.162    -5.158     0.004     68.75
   CaCO3           5.914e-06   5.989e-06    -5.228    -5.223     0.005    -14.60
   CO3-2           1.112e-06   5.124e-07    -5.954    -6.290    -0.336     -3.69
   FeCO3           2.743e-07   2.778e-07    -6.562    -6.556     0.005     (0)  
   CaHCO3+         7.372e-09   6.111e-09    -8.132    -8.214    -0.081      9.80
Ca            1.898e-02
   Ca+2            1.505e-02   6.958e-03    -1.823    -2.158    -0.335    -17.60
   CaSO4           3.929e-03   3.951e-03    -2.406    -2.403     0.002      7.22
   CaCO3           5.914e-06   5.989e-06    -5.228    -5.223     0.005    -14.60
   CaHSO4+         3.719e-08   3.036e-08    -7.430    -7.518    -0.088     (0)  
   CaHCO3+         7.372e-09   6.111e-09    -8.132    -8.214    -0.081      9.80
   CaOH+           1.541e-09   1.258e-09    -8.812    -8.900    -0.088     (0)  
Fe(2)         9.203e-05
   Fe+2            4.785e-05   2.260e-05    -4.320    -4.646    -0.326    -21.62
   FeHCO3+         2.773e-05   2.264e-05    -4.557    -4.645    -0.088     (0)  
   FeSO4           1.616e-05   1.636e-05    -4.792    -4.786     0.005     30.28
   FeCO3           2.743e-07   2.778e-07    -6.562    -6.556     0.005     (0)  
   FeOH+           9.490e-09   7.786e-09    -8.023    -8.109    -0.086     (0)  
   FeHSO4+         1.208e-10   9.861e-11    -9.918   -10.006    -0.088     (0)  
   Fe(OH)2         7.130e-14   7.220e-14   -13.147   -13.141     0.005     (0)  
   Fe(OH)3-        3.562e-18   2.922e-18   -17.448   -17.534    -0.086     (0)  
   Fe(HS)2         1.917e-19   1.941e-19   -18.717   -18.712     0.005     (0)  
   Fe(HS)3-        8.037e-29   6.562e-29   -28.095   -28.183    -0.088     (0)  
Fe(3)         2.663e-13
   Fe(OH)2+        2.379e-13   1.960e-13   -12.624   -12.708    -0.084     (0)  
   Fe(OH)3         2.717e-14   2.751e-14   -13.566   -13.560     0.005     (0)  
   FeOH+2          1.200e-15   5.434e-16   -14.921   -15.265    -0.344     (0)  
   Fe(OH)4-        3.318e-17   2.734e-17   -16.479   -16.563    -0.084     (0)  
   FeSO4+          4.203e-18   3.448e-18   -17.376   -17.462    -0.086     (0)  
   Fe(SO4)2-       3.762e-19   3.071e-19   -18.425   -18.513    -0.088     (0)  
   Fe+3            3.322e-19   7.725e-20   -18.479   -19.112    -0.633     (0)  
   FeHSO4+2        1.906e-23   8.467e-24   -22.720   -23.072    -0.352     (0)  
   Fe2(OH)2+4      2.041e-28   7.947e-30   -27.690   -29.100    -1.410     (0)  
   Fe3(OH)4+5      5.189e-38   3.255e-40   -37.285   -39.487    -2.203     (0)  
H(0)          9.170e-13
   H2              4.585e-13   4.645e-13   -12.339   -12.333     0.006     14.99
O(0)          0.000e+00
   O2              0.000e+00   0.000e+00   -67.703   -67.698     0.005     30.40
S(-2)         2.843e-11
   H2S             2.458e-11   2.489e-11   -10.609   -10.604     0.005     36.27
   HS-             3.853e-12   3.104e-12   -11.414   -11.508    -0.094     20.79
   S-2             9.027e-19   4.089e-19   -18.044   -18.388    -0.344     (0)  
   Fe(HS)2         1.917e-19   1.941e-19   -18.717   -18.712     0.005     (0)  
   (H2S)2          3.223e-23   3.264e-23   -22.492   -22.486     0.005     30.09
   Fe(HS)3-        8.037e-29   6.562e-29   -28.095   -28.183    -0.088     (0)  
S(6)          1.298e-02
   SO4-2           9.032e-03   4.071e-03    -2.044    -2.390    -0.346     14.96
   CaSO4           3.929e-03   3.951e-03    -2.406    -2.403     0.002      7.22
   FeSO4           1.616e-05   1.636e-05    -4.792    -4.786     0.005     30.28
   HSO4-           4.446e-07   3.629e-07    -6.352    -6.440    -0.088     40.46
   CaHSO4+         3.719e-08   3.036e-08    -7.430    -7.518    -0.088     (0)  
   FeHSO4+         1.208e-10   9.861e-11    -9.918   -10.006    -0.088     (0)  
   FeSO4+          4.203e-18   3.448e-18   -17.376   -17.462    -0.086     (0)  
   Fe(SO4)2-       3.762e-19   3.071e-19   -18.425   -18.513    -0.088     (0)  
   FeHSO4+2        1.906e-23   8.467e-24   -22.720   -23.072    -0.352     (0)  

------------------------------Saturation indices-------------------------------

  Phase               SI** log IAP   log K(298 K,   1 atm)

  Anhydrite        -0.23     -4.55   -4.31  CaSO4
  Aragonite        -0.11     -8.45   -8.34  CaCO3
  Calcite           0.00     -8.45   -8.45  CaCO3
  CH4(g)          -11.22    -14.03   -2.80  CH4
  CO2(g)           -0.22     -1.68   -1.47  CO2
  Fe(OH)3(a)       -5.89     -1.00    4.89  Fe(OH)3
  FeS(ppt)         -6.20    -10.12   -3.92  FeS
  Goethite         -0.00     -1.00   -1.00  FeOOH
  Gypsum            0.00     -4.55   -4.55  CaSO4:2H2O
  H2(g)            -9.23    -12.33   -3.10  H2
  H2O(g)           -1.50     -0.00    1.50  H2O
  H2S(g)           -9.61    -17.55   -7.94  H2S
  Hematite          2.01     -2.00   -4.01  Fe2O3
  Mackinawite      -5.47    -10.12   -4.65  FeS
  Melanterite      -4.83     -7.04   -2.21  FeSO4:7H2O
  O2(g)           -64.81    -67.70   -2.89  O2
  Pyrite           -0.00    -18.48  -18.48  FeS2
  Siderite         -0.05    -10.94  -10.89  FeCO3
  Sulfur           -6.30     -1.42    4.88  S

**For a gas, SI = log10(fugacity). Fugacity = pressure * phi / 1 atm.
  For ideal gases, phi = 1.

------------------
End of simulation.
------------------

------------------------------------
Reading input data for simulation 2.
------------------------------------

