WARNING: Database file from DATABASE keyword is used; command line argument ignored.
   Input file: ex7_T_P
  Output file: ex7_T_P.out
Database file: ../database/phreeqc.dat

------------------
Reading data base.
------------------

	SOLUTION_MASTER_SPECIES
	SOLUTION_SPECIES
	PHASES
	GAS_BINARY_PARAMETERS
	EXCHANGE_MASTER_SPECIES
	EXCHANGE_SPECIES
	SURFACE_MASTER_SPECIES
	SURFACE_SPECIES
	MEAN_GAMMAS
	RATES
	END
------------------------------------
Reading input data for simulation 1.
------------------------------------

	DATABASE ../database/phreeqc.dat
	TITLE Example 7.--Organic decomposition with fixed-pressure and
	                  fixed-volume gas phases
	SELECTED_OUTPUT 101
	    file                 ex7_T_P_101.sel
	USER_PUNCH 101
	    headings Mu SC
	    start
	10 PUNCH STR_F$(MU, 20, 12)
	20 PUNCH STR_F$(SC, 20, 10)
	    end
	SOLUTION_MASTER_SPECIES
	N(-3)    NH4+           0.0     N
	SOLUTION_SPECIES
	NH4+ = NH3 + H+
	        log_k           -9.252
	        delta_h 12.48   kcal
	        analytical_expression    0.6322    -0.001225     -2835.76
	NO3- + 10 H+ + 8 e- = NH4+ + 3 H2O
	        log_k           119.077
	        delta_h -187.055        kcal
	        gamma    2.5000    0.0000
	PHASES
	NH3(g)
	        NH3 = NH3
	        log_k           1.770
	        delta_h -8.170  kcal
	Ntg(g)
		Ntg = Ntg
		analytical_expression -58.453 1.81800e-3  3199  17.909 -27460
		t_c  126.2 
	 p_c   33.50 
	 omega 0.039
	SOLUTION 1
	EQUILIBRIUM_PHASES 1
	        Calcite
	        CO2(g)  -1.5
	SAVE solution 1
	END
-----
TITLE
-----

 Example 7.--Organic decomposition with fixed-pressure and
                  fixed-volume gas phases

-------------------------------------------
Beginning of initial solution calculations.
-------------------------------------------

Initial solution 1.	

-----------------------------Solution composition------------------------------

	Elements           Molality       Moles

	Pure water     

----------------------------Description of solution----------------------------

                                       pH  =   7.000    
                                       pe  =   4.000    
      Specific Conductance (µS/cm,  25°C)  = 0
                          Density (g/cm³)  =   0.99704
                               Volume (L)  =   1.00297
                        Viscosity (mPa s)  =   0.89002
                        Activity of water  =   1.000
                 Ionic strength (mol/kgw)  =   1.007e-07
                       Mass of water (kg)  =   1.000e+00
                 Total alkalinity (eq/kg)  =   1.217e-09
                         Temperature (°C)  =  25.00
                  Electrical balance (eq)  =  -1.217e-09
 Percent error, 100*(Cat-|An|)/(Cat+|An|)  =  -0.60
                               Iterations  =   0
                                  Total H  = 1.110124e+02
                                  Total O  = 5.550622e+01

----------------------------Distribution of species----------------------------

                                               Log       Log       Log    mole V
   Species          Molality    Activity  Molality  Activity     Gamma   cm³/mol

   OH-             1.013e-07   1.012e-07    -6.995    -6.995    -0.000     -4.14
   H+              1.001e-07   1.000e-07    -7.000    -7.000    -0.000      0.00
   H2O             5.551e+01   1.000e+00     1.744     0.000     0.000     18.07
H(0)          1.416e-25
   H2              7.079e-26   7.079e-26   -25.150   -25.150     0.000     14.99
O(0)          0.000e+00
   O2              0.000e+00   0.000e+00   -42.063   -42.063     0.000     30.40

------------------------------Saturation indices-------------------------------

  Phase               SI** log IAP   log K(298 K,   1 atm)

  H2(g)           -22.05    -25.15   -3.10  H2
  H2O(g)           -1.50      0.00    1.50  H2O
  O2(g)           -39.17    -42.06   -2.89  O2

**For a gas, SI = log10(fugacity). Fugacity = pressure * phi / 1 atm.
  For ideal gases, phi = 1.

-----------------------------------------
Beginning of batch-reaction calculations.
-----------------------------------------

Reaction step 1.

Using solution 1.	
Using pure phase assemblage 1.	

-------------------------------Phase assemblage--------------------------------

                                                      Moles in assemblage
Phase               SI  log IAP  log K(T, P)   Initial       Final       Delta

CO2(g)           -1.50    -2.97     -1.47    1.000e+01   9.996e+00  -3.563e-03
Calcite           0.00    -8.45     -8.45    1.000e+01   9.998e+00  -2.497e-03

-----------------------------Solution composition------------------------------

	Elements           Molality       Moles

	C                 6.060e-03   6.060e-03
	Ca                2.497e-03   2.497e-03

----------------------------Description of solution----------------------------

                                       pH  =   6.979      Charge balance
                                       pe  =  -1.257      Adjusted to redox equilibrium
      Specific Conductance (µS/cm,  25°C)  = 466
                          Density (g/cm³)  =   0.99738
                               Volume (L)  =   1.00304
                        Viscosity (mPa s)  =   0.89277
                        Activity of water  =   1.000
                 Ionic strength (mol/kgw)  =   7.477e-03
                       Mass of water (kg)  =   1.000e+00
                 Total alkalinity (eq/kg)  =   4.995e-03
                       Total CO2 (mol/kg)  =   6.060e-03
                         Temperature (°C)  =  25.00
                  Electrical balance (eq)  =  -1.240e-09
 Percent error, 100*(Cat-|An|)/(Cat+|An|)  =  -0.00
                               Iterations  =  16
                                  Total H  = 1.110124e+02
                                  Total O  = 5.552083e+01

----------------------------Distribution of species----------------------------

                                               Log       Log       Log    mole V
   Species          Molality    Activity  Molality  Activity     Gamma   cm³/mol

   H+              1.138e-07   1.050e-07    -6.944    -6.979    -0.035      0.00
   OH-             1.057e-07   9.641e-08    -6.976    -7.016    -0.040     -4.05
   H2O             5.551e+01   9.999e-01     1.744    -0.000     0.000     18.07
C(-4)         4.443e-25
   CH4             4.443e-25   4.451e-25   -24.352   -24.352     0.001     35.46
C(4)          6.060e-03
   HCO3-           4.977e-03   4.558e-03    -2.303    -2.341    -0.038     24.67
   CO2             1.075e-03   1.076e-03    -2.969    -2.968     0.000     34.79
   CaCO3           5.979e-06   5.989e-06    -5.223    -5.223     0.001    -14.60
   CO3-2           2.896e-06   2.036e-06    -5.538    -5.691    -0.153     -4.42
   (CO2)2          1.880e-08   1.882e-08    -7.726    -7.725     0.000     68.75
   CaHCO3+         7.630e-10   6.996e-10    -9.117    -9.155    -0.038      9.71
Ca            2.497e-03
   Ca+2            2.491e-03   1.751e-03    -2.604    -2.757    -0.153    -17.97
   CaCO3           5.979e-06   5.989e-06    -5.223    -5.223     0.001    -14.60
   CaOH+           3.031e-09   2.767e-09    -8.518    -8.558    -0.039     (0)  
   CaHCO3+         7.630e-10   6.996e-10    -9.117    -9.155    -0.038      9.71
H(0)          5.091e-15
   H2              2.546e-15   2.550e-15   -14.594   -14.593     0.001     14.99
O(0)          0.000e+00
   O2              0.000e+00   0.000e+00   -63.177   -63.176     0.001     30.40

------------------------------Saturation indices-------------------------------

  Phase               SI** log IAP   log K(298 K,   1 atm)

  Aragonite        -0.11     -8.45   -8.34  CaCO3
  Calcite           0.00     -8.45   -8.45  CaCO3
  CH4(g)          -21.55    -24.35   -2.80  CH4
  CO2(g)           -1.50     -2.97   -1.47  CO2	 Pressure   0.0 atm, phi 1.000
  H2(g)           -11.49    -14.59   -3.10  H2
  H2O(g)           -1.50     -0.00    1.50  H2O
  O2(g)           -60.28    -63.18   -2.89  O2

**For a gas, SI = log10(fugacity). Fugacity = pressure * phi / 1 atm.
  For ideal gases, phi = 1.

------------------
End of simulation.
------------------

------------------------------------
Reading input data for simulation 2.
------------------------------------

	USE solution 1
	GAS_PHASE 1 Fixed-pressure gas phase
	        fixed_pressure
	        pressure       1.1
	        CO2(g)          0
	        CH4(g)          0
	        N2(g)           0
	        H2O(g)          0
	REACTION 1
	        CH2O(NH3)0.07     1.0
	        1. 2. 3. 4. 8. 16. 32 64. 125. 250. 500. 1000. mmol
	REACTION_TEMPERATURE
	50
	REACTION_PRESSURE
	50
	END
-----------------------------------------
Beginning of batch-reaction calculations.
-----------------------------------------

Reaction step 1.

Using solution 1.	Solution after simulation 1.
Using gas phase 1.	Fixed-pressure gas phase
Using temperature 1.	
Using pressure 1.	
Using reaction 1.	

Reaction 1.	

	  1.000e-03 moles of the following reaction have been added:

	                 Relative
	Reactant            moles

	CH2O(NH3)0.07        1.00000

	                 Relative
	Element             moles
	C                    1.00000
	H                    2.21000
	N                    0.07000
	O                    1.00000

----------------Fixed-pressure gas phase 1 dissolved completely----------------

-----------------------------Solution composition------------------------------

	Elements           Molality       Moles

	C                 7.060e-03   7.060e-03
	Ca                2.497e-03   2.497e-03
	N                 7.000e-05   7.000e-05

----------------------------Description of solution----------------------------

                                       pH  =   6.746      Charge balance
                                       pe  =  -4.046      Adjusted to redox equilibrium
      Specific Conductance (µS/cm,  50°C)  = 768
                          Density (g/cm³)  =   0.99048
                               Volume (L)  =   1.01005
                        Viscosity (mPa s)  =   0.54942
                        Activity of water  =   1.000
                 Ionic strength (mol/kgw)  =   7.533e-03
                       Mass of water (kg)  =   1.000e+00
                 Total alkalinity (eq/kg)  =   5.064e-03
                       Total CO2 (mol/kg)  =   6.560e-03
                         Temperature (°C)  =  50.00
                           Pressure (atm)  = 50.00
                  Electrical balance (eq)  =  -1.240e-09
 Percent error, 100*(Cat-|An|)/(Cat+|An|)  =  -0.00
                               Iterations  =   9
                                  Total H  = 1.110146e+02
                                  Total O  = 5.552183e+01

----------------------------Distribution of species----------------------------

                                               Log       Log       Log    mole V
   Species          Molality    Activity  Molality  Activity     Gamma   cm³/mol

   OH-             3.498e-07   3.175e-07    -6.456    -6.498    -0.042     -3.78
   H+              1.953e-07   1.795e-07    -6.709    -6.746    -0.037      0.00
   H2O             5.551e+01   9.998e-01     1.744    -0.000     0.000     18.20
C(-4)         5.004e-04
   CH4             5.004e-04   5.013e-04    -3.301    -3.300     0.001     37.36
C(4)          6.560e-03
   HCO3-           5.037e-03   4.594e-03    -2.298    -2.338    -0.040     25.85
   CO2             1.510e-03   1.512e-03    -2.821    -2.821     0.000     35.90
   CaCO3           9.988e-06   1.000e-05    -5.001    -5.000     0.001    -14.21
   CO3-2           2.613e-06   1.807e-06    -5.583    -5.743    -0.160     -3.11
   (CO2)2          1.006e-07   1.007e-07    -6.997    -6.997     0.000     70.95
   CaHCO3+         7.808e-08   7.130e-08    -7.107    -7.147    -0.039     10.45
Ca            2.497e-03
   Ca+2            2.487e-03   1.719e-03    -2.604    -2.765    -0.161    -17.65
   CaCO3           9.988e-06   1.000e-05    -5.001    -5.000     0.001    -14.21
   CaHCO3+         7.808e-08   7.130e-08    -7.107    -7.147    -0.039     10.45
   CaOH+           1.750e-09   1.591e-09    -8.757    -8.798    -0.041     (0)  
H(0)          4.342e-09
   H2              2.171e-09   2.175e-09    -8.663    -8.663     0.001     16.41
N(-3)         6.903e-05
   NH4+            6.804e-05   6.160e-05    -4.167    -4.210    -0.043     (0)  
   NH3             9.904e-07   9.921e-07    -6.004    -6.003     0.001     (0)  
N(0)          9.718e-07
   N2              4.859e-07   4.867e-07    -6.313    -6.313     0.001     29.29
N(3)          0.000e+00
   NO2-            0.000e+00   0.000e+00   -56.850   -56.892    -0.043     25.69
N(5)          0.000e+00
   NO3-            0.000e+00   0.000e+00   -77.528   -77.571    -0.043     31.13
O(0)          0.000e+00
   O2              0.000e+00   0.000e+00   -67.496   -67.495     0.001     31.81

------------------------------Saturation indices-------------------------------

  Phase               SI** log IAP   log K(323 K,  50 atm)

  Aragonite        -0.02     -8.51   -8.49  CaCO3
  Calcite           0.13     -8.51   -8.64  CaCO3
  CH4(g)           -0.31     -3.30   -2.99  CH4
  CO2(g)           -1.08     -2.82   -1.74  CO2
  H2(g)            -5.52     -8.66   -3.14  H2
  H2O(g)           -0.90     -0.00    0.90  H2O
  N2(g)            -3.00     -6.31   -3.31  N2
  NH3(g)           -7.31     -6.00    1.31  NH3
  O2(g)           -64.44    -67.50   -3.06  O2

**For a gas, SI = log10(fugacity). Fugacity = pressure * phi / 1 atm.
  For ideal gases, phi = 1.

Reaction step 2.

Using solution 1.	Solution after simulation 1.
Using gas phase 1.	Fixed-pressure gas phase
Using temperature 1.	
Using pressure 1.	
Using reaction 1.	

Reaction 1.	

	  2.000e-03 moles of the following reaction have been added:

	                 Relative
	Reactant            moles

	CH2O(NH3)0.07        1.00000

	                 Relative
	Element             moles
	C                    1.00000
	H                    2.21000
	N                    0.07000
	O                    1.00000

----------------Fixed-pressure gas phase 1 dissolved completely----------------

-----------------------------Solution composition------------------------------

	Elements           Molality       Moles

	C                 8.061e-03   8.060e-03
	Ca                2.497e-03   2.497e-03
	N                 1.400e-04   1.400e-04

----------------------------Description of solution----------------------------

                                       pH  =   6.644      Charge balance
                                       pe  =  -3.968      Adjusted to redox equilibrium
      Specific Conductance (µS/cm,  50°C)  = 773
                          Density (g/cm³)  =   0.99048
                               Volume (L)  =   1.01009
                        Viscosity (mPa s)  =   0.54944
                        Activity of water  =   1.000
                 Ionic strength (mol/kgw)  =   7.607e-03
                       Mass of water (kg)  =   1.000e+00
                 Total alkalinity (eq/kg)  =   5.133e-03
                       Total CO2 (mol/kg)  =   7.060e-03
                         Temperature (°C)  =  50.00
                           Pressure (atm)  = 50.00
                  Electrical balance (eq)  =  -1.240e-09
 Percent error, 100*(Cat-|An|)/(Cat+|An|)  =  -0.00
                               Iterations  =  12
                                  Total H  = 1.110169e+02
                                  Total O  = 5.552283e+01

----------------------------Distribution of species----------------------------

                                               Log       Log       Log    mole V
   Species          Molality    Activity  Molality  Activity     Gamma   cm³/mol

   OH-             2.765e-07   2.509e-07    -6.558    -6.601    -0.042     -3.78
   H+              2.473e-07   2.272e-07    -6.607    -6.644    -0.037      0.00
   H2O             5.551e+01   9.998e-01     1.744    -0.000     0.000     18.20
C(-4)         1.001e-03
   CH4             1.001e-03   1.002e-03    -3.000    -2.999     0.001     37.36
C(4)          7.060e-03
   HCO3-           5.111e-03   4.660e-03    -2.291    -2.332    -0.040     25.85
   CO2             1.938e-03   1.941e-03    -2.713    -2.712     0.001     35.90
   CaCO3           7.998e-06   8.012e-06    -5.097    -5.096     0.001    -14.21
   CO3-2           2.097e-06   1.448e-06    -5.678    -5.839    -0.161     -3.11
   (CO2)2          1.658e-07   1.660e-07    -6.780    -6.780     0.001     70.95
   CaHCO3+         7.916e-08   7.226e-08    -7.101    -7.141    -0.040     10.45
Ca            2.497e-03
   Ca+2            2.489e-03   1.717e-03    -2.604    -2.765    -0.161    -17.64
   CaCO3           7.998e-06   8.012e-06    -5.097    -5.096     0.001    -14.21
   CaHCO3+         7.916e-08   7.226e-08    -7.101    -7.141    -0.040     10.45
   CaOH+           1.382e-09   1.256e-09    -8.860    -8.901    -0.042     (0)  
H(0)          4.850e-09
   H2              2.425e-09   2.430e-09    -8.615    -8.614     0.001     16.41
N(-3)         1.383e-04
   NH4+            1.367e-04   1.237e-04    -3.864    -3.908    -0.043     (0)  
   NH3             1.571e-06   1.574e-06    -5.804    -5.803     0.001     (0)  
N(0)          1.754e-06
   N2              8.770e-07   8.786e-07    -6.057    -6.056     0.001     29.29
N(3)          0.000e+00
   NO2-            0.000e+00   0.000e+00   -56.896   -56.939    -0.043     25.69
N(5)          0.000e+00
   NO3-            0.000e+00   0.000e+00   -77.623   -77.665    -0.043     31.14
O(0)          0.000e+00
   O2              0.000e+00   0.000e+00   -67.592   -67.592     0.001     31.81

------------------------------Saturation indices-------------------------------

  Phase               SI** log IAP   log K(323 K,  50 atm)

  Aragonite        -0.11     -8.60   -8.49  CaCO3
  Calcite           0.03     -8.60   -8.64  CaCO3
  CH4(g)           -0.01     -3.00   -2.99  CH4
  CO2(g)           -0.97     -2.71   -1.74  CO2
  H2(g)            -5.47     -8.61   -3.14  H2
  H2O(g)           -0.90     -0.00    0.90  H2O
  N2(g)            -2.74     -6.06   -3.31  N2
  NH3(g)           -7.11     -5.80    1.31  NH3
  O2(g)           -64.54    -67.59   -3.06  O2

**For a gas, SI = log10(fugacity). Fugacity = pressure * phi / 1 atm.
  For ideal gases, phi = 1.

Reaction step 3.

Using solution 1.	Solution after simulation 1.
Using gas phase 1.	Fixed-pressure gas phase
Using temperature 1.	
Using pressure 1.	
Using reaction 1.	

Reaction 1.	

	  3.000e-03 moles of the following reaction have been added:

	                 Relative
	Reactant            moles

	CH2O(NH3)0.07        1.00000

	                 Relative
	Element             moles
	C                    1.00000
	H                    2.21000
	N                    0.07000
	O                    1.00000

----------------Fixed-pressure gas phase 1 dissolved completely----------------

-----------------------------Solution composition------------------------------

	Elements           Molality       Moles

	C                 9.061e-03   9.060e-03
	Ca                2.497e-03   2.497e-03
	N                 2.100e-04   2.100e-04

----------------------------Description of solution----------------------------

                                       pH  =   6.563      Charge balance
                                       pe  =  -3.898      Adjusted to redox equilibrium
      Specific Conductance (µS/cm,  50°C)  = 778
                          Density (g/cm³)  =   0.99047
                               Volume (L)  =   1.01012
                        Viscosity (mPa s)  =   0.54946
                        Activity of water  =   1.000
                 Ionic strength (mol/kgw)  =   7.679e-03
                       Mass of water (kg)  =   1.000e+00
                 Total alkalinity (eq/kg)  =   5.202e-03
                       Total CO2 (mol/kg)  =   7.560e-03
                         Temperature (°C)  =  50.00
                           Pressure (atm)  = 50.00
                  Electrical balance (eq)  =  -1.240e-09
 Percent error, 100*(Cat-|An|)/(Cat+|An|)  =  -0.00
                               Iterations  =  14
                                  Total H  = 1.110191e+02
                                  Total O  = 5.552383e+01

----------------------------Distribution of species----------------------------

                                               Log       Log       Log    mole V
   Species          Molality    Activity  Molality  Activity     Gamma   cm³/mol

   H+              2.980e-07   2.737e-07    -6.526    -6.563    -0.037      0.00
   OH-             2.296e-07   2.083e-07    -6.639    -6.681    -0.042     -3.78
   H2O             5.551e+01   9.998e-01     1.744    -0.000     0.000     18.20
C(-4)         1.501e-03
   CH4             1.501e-03   1.504e-03    -2.824    -2.823     0.001     37.36
C(4)          7.560e-03
   HCO3-           5.183e-03   4.724e-03    -2.285    -2.326    -0.040     25.85
   CO2             2.367e-03   2.370e-03    -2.626    -2.625     0.001     35.90
   CaCO3           6.723e-06   6.735e-06    -5.172    -5.172     0.001    -14.21
   CO3-2           1.768e-06   1.219e-06    -5.753    -5.914    -0.161     -3.11
   (CO2)2          2.473e-07   2.476e-07    -6.607    -6.606     0.001     70.95
   CaHCO3+         8.020e-08   7.318e-08    -7.096    -7.136    -0.040     10.45
Ca            2.497e-03
   Ca+2            2.491e-03   1.716e-03    -2.604    -2.766    -0.162    -17.64
   CaCO3           6.723e-06   6.735e-06    -5.172    -5.172     0.001    -14.21
   CaHCO3+         8.020e-08   7.318e-08    -7.096    -7.136    -0.040     10.45
   CaOH+           1.146e-09   1.041e-09    -8.941    -8.982    -0.042     (0)  
H(0)          5.106e-09
   H2              2.553e-09   2.558e-09    -8.593    -8.592     0.001     16.41
N(-3)         2.077e-04
   NH4+            2.057e-04   1.861e-04    -3.687    -3.730    -0.044     (0)  
   NH3             1.962e-06   1.965e-06    -5.707    -5.707     0.001     (0)  
N(0)          2.344e-06
   N2              1.172e-06   1.174e-06    -5.931    -5.930     0.001     29.29
N(3)          0.000e+00
   NO2-            0.000e+00   0.000e+00   -56.947   -56.990    -0.043     25.69
N(5)          0.000e+00
   NO3-            0.000e+00   0.000e+00   -77.696   -77.739    -0.043     31.14
O(0)          0.000e+00
   O2              0.000e+00   0.000e+00   -67.637   -67.636     0.001     31.81

------------------------------Saturation indices-------------------------------

  Phase               SI** log IAP   log K(323 K,  50 atm)

  Aragonite        -0.19     -8.68   -8.49  CaCO3
  Calcite          -0.04     -8.68   -8.64  CaCO3
  CH4(g)            0.17     -2.82   -2.99  CH4
  CO2(g)           -0.89     -2.63   -1.74  CO2
  H2(g)            -5.45     -8.59   -3.14  H2
  H2O(g)           -0.90     -0.00    0.90  H2O
  N2(g)            -2.62     -5.93   -3.31  N2
  NH3(g)           -7.01     -5.71    1.31  NH3
  O2(g)           -64.58    -67.64   -3.06  O2

**For a gas, SI = log10(fugacity). Fugacity = pressure * phi / 1 atm.
  For ideal gases, phi = 1.

Reaction step 4.

Using solution 1.	Solution after simulation 1.
Using gas phase 1.	Fixed-pressure gas phase
Using temperature 1.	
Using pressure 1.	
Using reaction 1.	

Reaction 1.	

	  4.000e-03 moles of the following reaction have been added:

	                 Relative
	Reactant            moles

	CH2O(NH3)0.07        1.00000

	                 Relative
	Element             moles
	C                    1.00000
	H                    2.21000
	N                    0.07000
	O                    1.00000

----------------Fixed-pressure gas phase 1 dissolved completely----------------

-----------------------------Solution composition------------------------------

	Elements           Molality       Moles

	C                 1.006e-02   1.006e-02
	Ca                2.497e-03   2.497e-03
	N                 2.800e-04   2.800e-04

----------------------------Description of solution----------------------------

                                       pH  =   6.496      Charge balance
                                       pe  =  -3.838      Adjusted to redox equilibrium
      Specific Conductance (µS/cm,  50°C)  = 782
                          Density (g/cm³)  =   0.99047
                               Volume (L)  =   1.01016
                        Viscosity (mPa s)  =   0.54947
                        Activity of water  =   1.000
                 Ionic strength (mol/kgw)  =   7.751e-03
                       Mass of water (kg)  =   1.000e+00
                 Total alkalinity (eq/kg)  =   5.272e-03
                       Total CO2 (mol/kg)  =   8.060e-03
                         Temperature (°C)  =  50.00
                           Pressure (atm)  = 50.00
                  Electrical balance (eq)  =  -1.240e-09
 Percent error, 100*(Cat-|An|)/(Cat+|An|)  =  -0.00
                               Iterations  =  16
                                  Total H  = 1.110213e+02
                                  Total O  = 5.552483e+01

----------------------------Distribution of species----------------------------

                                               Log       Log       Log    mole V
   Species          Molality    Activity  Molality  Activity     Gamma   cm³/mol

   H+              3.475e-07   3.190e-07    -6.459    -6.496    -0.037      0.00
   OH-             1.971e-07   1.787e-07    -6.705    -6.748    -0.043     -3.78
   H2O             5.551e+01   9.998e-01     1.744    -0.000     0.000     18.20
C(-4)         2.001e-03
   CH4             2.001e-03   2.005e-03    -2.699    -2.698     0.001     37.36
C(4)          8.060e-03
   HCO3-           5.255e-03   4.787e-03    -2.279    -2.320    -0.040     25.85
   CO2             2.796e-03   2.800e-03    -2.553    -2.553     0.001     35.90
   CaCO3           5.839e-06   5.849e-06    -5.234    -5.233     0.001    -14.21
   CO3-2           1.539e-06   1.060e-06    -5.813    -5.975    -0.162     -3.10
   (CO2)2          3.451e-07   3.456e-07    -6.462    -6.461     0.001     70.95
   CaHCO3+         8.121e-08   7.408e-08    -7.090    -7.130    -0.040     10.45
Ca            2.497e-03
   Ca+2            2.491e-03   1.714e-03    -2.604    -2.766    -0.162    -17.64
   CaCO3           5.839e-06   5.849e-06    -5.234    -5.233     0.001    -14.21
   CaHCO3+         8.121e-08   7.408e-08    -7.090    -7.130    -0.040     10.45
   CaOH+           9.827e-10   8.923e-10    -9.008    -9.049    -0.042     (0)  
H(0)          5.263e-09
   H2              2.631e-09   2.636e-09    -8.580    -8.579     0.001     16.41
N(-3)         2.772e-04
   NH4+            2.750e-04   2.486e-04    -3.561    -3.604    -0.044     (0)  
   NH3             2.249e-06   2.253e-06    -5.648    -5.647     0.001     (0)  
N(0)          2.813e-06
   N2              1.406e-06   1.409e-06    -5.852    -5.851     0.001     29.29
N(3)          0.000e+00
   NO2-            0.000e+00   0.000e+00   -56.994   -57.037    -0.043     25.69
N(5)          0.000e+00
   NO3-            0.000e+00   0.000e+00   -77.756   -77.799    -0.043     31.14
O(0)          0.000e+00
   O2              0.000e+00   0.000e+00   -67.663   -67.663     0.001     31.81

------------------------------Saturation indices-------------------------------

  Phase               SI** log IAP   log K(323 K,  50 atm)

  Aragonite        -0.25     -8.74   -8.49  CaCO3
  Calcite          -0.10     -8.74   -8.64  CaCO3
  CH4(g)            0.29     -2.70   -2.99  CH4
  CO2(g)           -0.81     -2.55   -1.74  CO2
  H2(g)            -5.44     -8.58   -3.14  H2
  H2O(g)           -0.90     -0.00    0.90  H2O
  N2(g)            -2.54     -5.85   -3.31  N2
  NH3(g)           -6.95     -5.65    1.31  NH3
  O2(g)           -64.61    -67.66   -3.06  O2

**For a gas, SI = log10(fugacity). Fugacity = pressure * phi / 1 atm.
  For ideal gases, phi = 1.

Reaction step 5.

Using solution 1.	Solution after simulation 1.
Using gas phase 1.	Fixed-pressure gas phase
Using temperature 1.	
Using pressure 1.	
Using reaction 1.	

Reaction 1.	

	  8.000e-03 moles of the following reaction have been added:

	                 Relative
	Reactant            moles

	CH2O(NH3)0.07        1.00000

	                 Relative
	Element             moles
	C                    1.00000
	H                    2.21000
	N                    0.07000
	O                    1.00000

----------------Fixed-pressure gas phase 1 dissolved completely----------------

-----------------------------Solution composition------------------------------

	Elements           Molality       Moles

	C                 1.406e-02   1.406e-02
	Ca                2.497e-03   2.497e-03
	N                 5.600e-04   5.600e-04

----------------------------Description of solution----------------------------

                                       pH  =   6.310      Charge balance
                                       pe  =  -3.664      Adjusted to redox equilibrium
      Specific Conductance (µS/cm,  50°C)  = 801
                          Density (g/cm³)  =   0.99046
                               Volume (L)  =   1.01030
                        Viscosity (mPa s)  =   0.54954
                        Activity of water  =   1.000
                 Ionic strength (mol/kgw)  =   8.034e-03
                       Mass of water (kg)  =   9.999e-01
                 Total alkalinity (eq/kg)  =   5.551e-03
                       Total CO2 (mol/kg)  =   1.006e-02
                         Temperature (°C)  =  50.00
                           Pressure (atm)  = 50.00
                  Electrical balance (eq)  =  -1.240e-09
 Percent error, 100*(Cat-|An|)/(Cat+|An|)  =  -0.00
                               Iterations  =  12
                                  Total H  = 1.110301e+02
                                  Total O  = 5.552883e+01

----------------------------Distribution of species----------------------------

                                               Log       Log       Log    mole V
   Species          Molality    Activity  Molality  Activity     Gamma   cm³/mol

   H+              5.337e-07   4.893e-07    -6.273    -6.310    -0.038      0.00
   OH-             1.287e-07   1.165e-07    -6.891    -6.934    -0.043     -3.78
   H2O             5.551e+01   9.997e-01     1.744    -0.000     0.000     18.20
C(-4)         4.002e-03
   CH4             4.002e-03   4.009e-03    -2.398    -2.397     0.001     37.36
C(4)          1.006e-02
   HCO3-           5.538e-03   5.038e-03    -2.257    -2.298    -0.041     25.86
   CO2             4.514e-03   4.520e-03    -2.345    -2.345     0.001     35.90
   CaCO3           3.985e-06   3.992e-06    -5.400    -5.399     0.001    -14.21
   CO3-2           1.062e-06   7.269e-07    -5.974    -6.139    -0.165     -3.10
   (CO2)2          8.995e-07   9.006e-07    -6.046    -6.045     0.001     70.95
   CaHCO3+         8.515e-08   7.756e-08    -7.070    -7.110    -0.041     10.45
Ca            2.497e-03
   Ca+2            2.493e-03   1.705e-03    -2.603    -2.768    -0.165    -17.63
   CaCO3           3.985e-06   3.992e-06    -5.400    -5.399     0.001    -14.21
   CaHCO3+         8.515e-08   7.756e-08    -7.070    -7.110    -0.041     10.45
   CaOH+           6.383e-10   5.787e-10    -9.195    -9.238    -0.043     (0)  
H(0)          5.551e-09
   H2              2.776e-09   2.781e-09    -8.557    -8.556     0.001     16.41
N(-3)         5.559e-04
   NH4+            5.530e-04   4.992e-04    -3.257    -3.302    -0.044     (0)  
   NH3             2.943e-06   2.948e-06    -5.531    -5.530     0.001     (0)  
N(0)          4.104e-06
   N2              2.052e-06   2.056e-06    -5.688    -5.687     0.001     29.29
N(3)          0.000e+00
   NO2-            0.000e+00   0.000e+00   -57.131   -57.175    -0.044     25.69
N(5)          0.000e+00
   NO3-            0.000e+00   0.000e+00   -77.917   -77.961    -0.044     31.14
O(0)          0.000e+00
   O2              0.000e+00   0.000e+00   -67.710   -67.709     0.001     31.81

------------------------------Saturation indices-------------------------------

  Phase               SI** log IAP   log K(323 K,  50 atm)

  Aragonite        -0.42     -8.91   -8.49  CaCO3
  Calcite          -0.27     -8.91   -8.64  CaCO3
  CH4(g)            0.59     -2.40   -2.99  CH4
  CO2(g)           -0.61     -2.34   -1.74  CO2
  H2(g)            -5.41     -8.56   -3.14  H2
  H2O(g)           -0.90     -0.00    0.90  H2O
  N2(g)            -2.38     -5.69   -3.31  N2
  NH3(g)           -6.84     -5.53    1.31  NH3
  O2(g)           -64.65    -67.71   -3.06  O2

**For a gas, SI = log10(fugacity). Fugacity = pressure * phi / 1 atm.
  For ideal gases, phi = 1.

Reaction step 6.

Using solution 1.	Solution after simulation 1.
Using gas phase 1.	Fixed-pressure gas phase
Using temperature 1.	
Using pressure 1.	
Using reaction 1.	

Reaction 1.	

	  1.600e-02 moles of the following reaction have been added:

	                 Relative
	Reactant            moles

	CH2O(NH3)0.07        1.00000

	                 Relative
	Element             moles
	C                    1.00000
	H                    2.21000
	N                    0.07000
	O                    1.00000

----------------Fixed-pressure gas phase 1 dissolved completely----------------

-----------------------------Solution composition------------------------------

	Elements           Molality       Moles

	C                 2.206e-02   2.206e-02
	Ca                2.497e-03   2.497e-03
	N                 1.120e-03   1.120e-03

----------------------------Description of solution----------------------------

                                       pH  =   6.105      Charge balance
                                       pe  =  -3.466      Adjusted to redox equilibrium
      Specific Conductance (µS/cm,  50°C)  = 837
                          Density (g/cm³)  =   0.99043
                               Volume (L)  =   1.01057
                        Viscosity (mPa s)  =   0.54967
                        Activity of water  =   1.000
                 Ionic strength (mol/kgw)  =   8.596e-03
                       Mass of water (kg)  =   9.999e-01
                 Total alkalinity (eq/kg)  =   6.109e-03
                       Total CO2 (mol/kg)  =   1.406e-02
                         Temperature (°C)  =  50.00
                           Pressure (atm)  = 50.00
                  Electrical balance (eq)  =  -1.262e-09
 Percent error, 100*(Cat-|An|)/(Cat+|An|)  =  -0.00
                               Iterations  =  13
                                  Total H  = 1.110478e+02
                                  Total O  = 5.553683e+01

----------------------------Distribution of species----------------------------

                                               Log       Log       Log    mole V
   Species          Molality    Activity  Molality  Activity     Gamma   cm³/mol

   H+              8.578e-07   7.846e-07    -6.067    -6.105    -0.039      0.00
   OH-             8.047e-08   7.262e-08    -7.094    -7.139    -0.045     -3.77
   H2O             5.551e+01   9.996e-01     1.744    -0.000     0.000     18.20
C(-4)         8.003e-03
   CH4             8.003e-03   8.019e-03    -2.097    -2.096     0.001     37.36
C(4)          1.406e-02
   CO2             7.951e-03   7.961e-03    -2.100    -2.099     0.001     35.90
   HCO3-           6.099e-03   5.533e-03    -2.215    -2.257    -0.042     25.87
   (CO2)2          2.790e-06   2.794e-06    -5.554    -5.554     0.001     70.95
   CaCO3           2.700e-06   2.705e-06    -5.569    -5.568     0.001    -14.21
   CO3-2           7.356e-07   4.979e-07    -6.133    -6.303    -0.169     -3.08
   CaHCO3+         9.278e-08   8.428e-08    -7.033    -7.074    -0.042     10.45
Ca            2.497e-03
   Ca+2            2.495e-03   1.687e-03    -2.603    -2.773    -0.170    -17.62
   CaCO3           2.700e-06   2.705e-06    -5.569    -5.568     0.001    -14.21
   CaHCO3+         9.278e-08   8.428e-08    -7.033    -7.074    -0.042     10.45
   CaOH+           3.950e-10   3.570e-10    -9.403    -9.447    -0.044     (0)  
H(0)          5.729e-09
   H2              2.865e-09   2.871e-09    -8.543    -8.542     0.001     16.41
N(-3)         1.114e-03
   NH4+            1.111e-03   9.992e-04    -2.954    -3.000    -0.046     (0)  
   NH3             3.674e-06   3.681e-06    -5.435    -5.434     0.001     (0)  
N(0)          5.815e-06
   N2              2.908e-06   2.913e-06    -5.536    -5.536     0.001     29.29
N(3)          0.000e+00
   NO2-            0.000e+00   0.000e+00   -57.280   -57.325    -0.045     25.69
N(5)          0.000e+00
   NO3-            0.000e+00   0.000e+00   -78.080   -78.125    -0.045     31.14
O(0)          0.000e+00
   O2              0.000e+00   0.000e+00   -67.738   -67.737     0.001     31.81

------------------------------Saturation indices-------------------------------

  Phase               SI** log IAP   log K(323 K,  50 atm)

  Aragonite        -0.58     -9.08   -8.49  CaCO3
  Calcite          -0.44     -9.08   -8.64  CaCO3
  CH4(g)            0.89     -2.10   -2.99  CH4
  CO2(g)           -0.36     -2.10   -1.74  CO2
  H2(g)            -5.40     -8.54   -3.14  H2
  H2O(g)           -0.90     -0.00    0.90  H2O
  N2(g)            -2.22     -5.54   -3.31  N2
  NH3(g)           -6.74     -5.43    1.31  NH3
  O2(g)           -64.68    -67.74   -3.06  O2

**For a gas, SI = log10(fugacity). Fugacity = pressure * phi / 1 atm.
  For ideal gases, phi = 1.

Reaction step 7.

Using solution 1.	Solution after simulation 1.
Using gas phase 1.	Fixed-pressure gas phase
Using temperature 1.	
Using pressure 1.	
Using reaction 1.	

Reaction 1.	

	  3.200e-02 moles of the following reaction have been added:

	                 Relative
	Reactant            moles

	CH2O(NH3)0.07        1.00000

	                 Relative
	Element             moles
	C                    1.00000
	H                    2.21000
	N                    0.07000
	O                    1.00000

----------------Fixed-pressure gas phase 1 dissolved completely----------------

-----------------------------Solution composition------------------------------

	Elements           Molality       Moles

	C                 3.806e-02   3.806e-02
	Ca                2.497e-03   2.497e-03
	N                 2.240e-03   2.240e-03

----------------------------Description of solution----------------------------

                                       pH  =   5.906      Charge balance
                                       pe  =  -3.270      Adjusted to redox equilibrium
      Specific Conductance (µS/cm,  50°C)  = 909
                          Density (g/cm³)  =   0.99038
                               Volume (L)  =   1.01113
                        Viscosity (mPa s)  =   0.54993
                        Activity of water  =   0.999
                 Ionic strength (mol/kgw)  =   9.715e-03
                       Mass of water (kg)  =   9.999e-01
                 Total alkalinity (eq/kg)  =   7.226e-03
                       Total CO2 (mol/kg)  =   2.206e-02
                         Temperature (°C)  =  50.00
                           Pressure (atm)  = 50.00
                  Electrical balance (eq)  =  -1.240e-09
 Percent error, 100*(Cat-|An|)/(Cat+|An|)  =  -0.00
                               Iterations  =  16
                                  Total H  = 1.110832e+02
                                  Total O  = 5.555283e+01

----------------------------Distribution of species----------------------------

                                               Log       Log       Log    mole V
   Species          Molality    Activity  Molality  Activity     Gamma   cm³/mol

   H+              1.364e-06   1.242e-06    -5.865    -5.906    -0.041      0.00
   OH-             5.112e-08   4.586e-08    -7.291    -7.339    -0.047     -3.77
   H2O             5.551e+01   9.993e-01     1.744    -0.000     0.000     18.20
C(-4)         1.600e-02
   CH4             1.600e-02   1.604e-02    -1.796    -1.795     0.001     37.36
C(4)          2.206e-02
   CO2             1.482e-02   1.484e-02    -1.829    -1.829     0.001     35.90
   HCO3-           7.218e-03   6.514e-03    -2.142    -2.186    -0.045     25.88
   (CO2)2          9.695e-06   9.710e-06    -5.013    -5.013     0.001     70.95
   CaCO3           1.967e-06   1.971e-06    -5.706    -5.705     0.001    -14.21
   CO3-2           5.586e-07   3.703e-07    -6.253    -6.431    -0.179     -3.05
   CaHCO3+         1.075e-07   9.720e-08    -6.968    -7.012    -0.044     10.46
Ca            2.497e-03
   Ca+2            2.495e-03   1.652e-03    -2.603    -2.782    -0.179    -17.60
   CaCO3           1.967e-06   1.971e-06    -5.706    -5.705     0.001    -14.21
   CaHCO3+         1.075e-07   9.720e-08    -6.968    -7.012    -0.044     10.46
   CaOH+           2.457e-10   2.209e-10    -9.610    -9.656    -0.046     (0)  
H(0)          5.829e-09
   H2              2.914e-09   2.921e-09    -8.535    -8.534     0.001     16.41
N(-3)         2.231e-03
   NH4+            2.227e-03   1.991e-03    -2.652    -2.701    -0.049     (0)  
   NH3             4.624e-06   4.634e-06    -5.335    -5.334     0.001     (0)  
N(0)          8.743e-06
   N2              4.371e-06   4.381e-06    -5.359    -5.358     0.001     29.29
N(3)          0.000e+00
   NO2-            0.000e+00   0.000e+00   -57.400   -57.448    -0.048     25.70
N(5)          0.000e+00
   NO3-            0.000e+00   0.000e+00   -78.207   -78.255    -0.048     31.15
O(0)          0.000e+00
   O2              0.000e+00   0.000e+00   -67.753   -67.752     0.001     31.81

------------------------------Saturation indices-------------------------------

  Phase               SI** log IAP   log K(323 K,  50 atm)

  Aragonite        -0.72     -9.21   -8.49  CaCO3
  Calcite          -0.57     -9.21   -8.64  CaCO3
  CH4(g)            1.19     -1.79   -2.99  CH4
  CO2(g)           -0.09     -1.83   -1.74  CO2
  H2(g)            -5.39     -8.53   -3.14  H2
  H2O(g)           -0.90     -0.00    0.90  H2O
  N2(g)            -2.05     -5.36   -3.31  N2
  NH3(g)           -6.64     -5.33    1.31  NH3
  O2(g)           -64.70    -67.75   -3.06  O2

**For a gas, SI = log10(fugacity). Fugacity = pressure * phi / 1 atm.
  For ideal gases, phi = 1.

Reaction step 8.

Using solution 1.	Solution after simulation 1.
Using gas phase 1.	Fixed-pressure gas phase
Using temperature 1.	
Using pressure 1.	
Using reaction 1.	

Reaction 1.	

	  6.400e-02 moles of the following reaction have been added:

	                 Relative
	Reactant            moles

	CH2O(NH3)0.07        1.00000

	                 Relative
	Element             moles
	C                    1.00000
	H                    2.21000
	N                    0.07000
	O                    1.00000

----------------Fixed-pressure gas phase 1 dissolved completely----------------

-----------------------------Solution composition------------------------------

	Elements           Molality       Moles

	C                 7.007e-02   7.006e-02
	Ca                2.498e-03   2.497e-03
	N                 4.481e-03   4.480e-03

----------------------------Description of solution----------------------------

                                       pH  =   5.735      Charge balance
                                       pe  =  -3.101      Adjusted to redox equilibrium
      Specific Conductance (µS/cm,  50°C)  = 1051
                          Density (g/cm³)  =   0.99028
                               Volume (L)  =   1.01224
                        Viscosity (mPa s)  =   0.55043
                        Activity of water  =   0.999
                 Ionic strength (mol/kgw)  =   1.195e-02
                       Mass of water (kg)  =   9.999e-01
                 Total alkalinity (eq/kg)  =   9.460e-03
                       Total CO2 (mol/kg)  =   3.806e-02
                         Temperature (°C)  =  50.00
                           Pressure (atm)  = 50.00
                  Electrical balance (eq)  =  -1.240e-09
 Percent error, 100*(Cat-|An|)/(Cat+|An|)  =  -0.00
                               Iterations  =  12
                                  Total H  = 1.111539e+02
                                  Total O  = 5.558483e+01

----------------------------Distribution of species----------------------------

                                               Log       Log       Log    mole V
   Species          Molality    Activity  Molality  Activity     Gamma   cm³/mol

   H+              2.039e-06   1.843e-06    -5.691    -5.735    -0.044      0.00
   OH-             3.480e-08   3.089e-08    -7.458    -7.510    -0.052     -3.75
   H2O             5.551e+01   9.987e-01     1.744    -0.001     0.000     18.20
C(-4)         3.201e-02
   CH4             3.201e-02   3.210e-02    -1.495    -1.494     0.001     37.36
C(4)          3.806e-02
   CO2             2.853e-02   2.859e-02    -1.545    -1.544     0.001     35.90
   HCO3-           9.452e-03   8.451e-03    -2.024    -2.073    -0.049     25.91
   (CO2)2          3.596e-05   3.602e-05    -4.444    -4.443     0.001     70.95
   CaCO3           1.656e-06   1.661e-06    -5.781    -5.780     0.001    -14.21
   CO3-2           5.071e-07   3.237e-07    -6.295    -6.490    -0.195     -2.99
   CaHCO3+         1.356e-07   1.215e-07    -6.868    -6.915    -0.048     10.47
Ca            2.498e-03
   Ca+2            2.496e-03   1.592e-03    -2.603    -2.798    -0.195    -17.56
   CaCO3           1.656e-06   1.661e-06    -5.781    -5.780     0.001    -14.21
   CaHCO3+         1.356e-07   1.215e-07    -6.868    -6.915    -0.048     10.47
   CaOH+           1.611e-10   1.433e-10    -9.793    -9.844    -0.051     (0)  
H(0)          5.880e-09
   H2              2.940e-09   2.949e-09    -8.532    -8.530     0.001     16.41
N(-3)         4.465e-03
   NH4+            4.459e-03   3.943e-03    -2.351    -2.404    -0.053     (0)  
   NH3             6.168e-06   6.185e-06    -5.210    -5.209     0.001     (0)  
N(0)          1.514e-05
   N2              7.570e-06   7.591e-06    -5.121    -5.120     0.001     29.29
N(3)          0.000e+00
   NO2-            0.000e+00   0.000e+00   -57.454   -57.507    -0.053     25.71
N(5)          0.000e+00
   NO3-            0.000e+00   0.000e+00   -78.265   -78.318    -0.053     31.16
O(0)          0.000e+00
   O2              0.000e+00   0.000e+00   -67.762   -67.761     0.001     31.81

------------------------------Saturation indices-------------------------------

  Phase               SI** log IAP   log K(323 K,  50 atm)

  Aragonite        -0.80     -9.29   -8.49  CaCO3
  Calcite          -0.65     -9.29   -8.64  CaCO3
  CH4(g)            1.50     -1.49   -2.99  CH4
  CO2(g)            0.20     -1.54   -1.74  CO2
  H2(g)            -5.39     -8.53   -3.14  H2
  H2O(g)           -0.90     -0.00    0.90  H2O
  N2(g)            -1.81     -5.12   -3.31  N2
  NH3(g)           -6.52     -5.21    1.31  NH3
  O2(g)           -64.71    -67.76   -3.06  O2

**For a gas, SI = log10(fugacity). Fugacity = pressure * phi / 1 atm.
  For ideal gases, phi = 1.

Reaction step 9.

Using solution 1.	Solution after simulation 1.
Using gas phase 1.	Fixed-pressure gas phase
Using temperature 1.	
Using pressure 1.	
Using reaction 1.	

Reaction 1.	

	  1.250e-01 moles of the following reaction have been added:

	                 Relative
	Reactant            moles

	CH2O(NH3)0.07        1.00000

	                 Relative
	Element             moles
	C                    1.00000
	H                    2.21000
	N                    0.07000
	O                    1.00000

-----------------------------------Gas phase-----------------------------------

Total pressure: 50.00      atmospheres          (Peng-Robinson calculation)
    Gas volume:   9.97e-03 liters
  Molar volume:   4.86e-01 liters/mole
   P * Vm / RT:  0.91580  (Compressibility Factor Z) 

                                                        Moles in gas
                                            ----------------------------------
Component         log P           P    phi     Initial       Final       Delta

CH4(g)             1.67   4.625e+01  0.922   0.000e+00   1.899e-02   1.899e-02
CO2(g)             0.55   3.565e+00  0.821   0.000e+00   1.464e-03   1.464e-03
H2O(g)            -0.83   1.468e-01  0.854   0.000e+00   6.025e-05   6.025e-05
N2(g)             -1.38   4.133e-02  1.016   0.000e+00   1.697e-05   1.697e-05

-----------------------------Solution composition------------------------------

	Elements           Molality       Moles

	C                 1.106e-01   1.106e-01
	Ca                2.498e-03   2.497e-03
	N                 8.718e-03   8.716e-03

----------------------------Description of solution----------------------------

                                       pH  =   5.618      Charge balance
                                       pe  =  -2.967      Adjusted to redox equilibrium
      Specific Conductance (µS/cm,  50°C)  = 1316
                          Density (g/cm³)  =   0.99047
                               Volume (L)  =   1.01359
                        Viscosity (mPa s)  =   0.55133
                        Activity of water  =   0.998
                 Ionic strength (mol/kgw)  =   1.616e-02
                       Mass of water (kg)  =   9.998e-01
                 Total alkalinity (eq/kg)  =   1.367e-02
                       Total CO2 (mol/kg)  =   6.708e-02
                         Temperature (°C)  =  50.00
                           Pressure (atm)  = 50.00
                  Electrical balance (eq)  =  -1.240e-09
 Percent error, 100*(Cat-|An|)/(Cat+|An|)  =  -0.00
                               Iterations  =  19
                                  Total H  = 1.112126e+02
                                  Total O  = 5.564285e+01

----------------------------Distribution of species----------------------------

                                               Log       Log       Log    mole V
   Species          Molality    Activity  Molality  Activity     Gamma   cm³/mol

   H+              2.699e-06   2.411e-06    -5.569    -5.618    -0.049      0.00
   OH-             2.703e-08   2.359e-08    -7.568    -7.627    -0.059     -3.72
   H2O             5.551e+01   9.979e-01     1.744    -0.001     0.000     18.20
C(-4)         4.355e-02
   CH4             4.355e-02   4.371e-02    -1.361    -1.359     0.002     37.36
C(4)          6.708e-02
   CO2             5.317e-02   5.330e-02    -1.274    -1.273     0.001     35.90
   HCO3-           1.366e-02   1.203e-02    -1.865    -1.920    -0.055     25.97
   (CO2)2          1.249e-04   1.252e-04    -3.903    -3.902     0.001     70.95
   CaCO3           1.697e-06   1.704e-06    -5.770    -5.769     0.002    -14.21
   CO3-2           5.858e-07   3.524e-07    -6.232    -6.453    -0.221     -2.89
   CaHCO3+         1.847e-07   1.631e-07    -6.734    -6.788    -0.054     10.48
Ca            2.498e-03
   Ca+2            2.496e-03   1.500e-03    -2.603    -2.824    -0.221    -17.50
   CaCO3           1.697e-06   1.704e-06    -5.770    -5.769     0.002    -14.21
   CaHCO3+         1.847e-07   1.631e-07    -6.734    -6.788    -0.054     10.48
   CaOH+           1.178e-10   1.032e-10    -9.929    -9.986    -0.058     (0)  
H(0)          5.428e-09
   H2              2.714e-09   2.725e-09    -8.566    -8.565     0.002     16.41
N(-3)         8.677e-03
   NH4+            8.668e-03   7.527e-03    -2.062    -2.123    -0.061     (0)  
   NH3             8.992e-06   9.025e-06    -5.046    -5.045     0.002     (0)  
N(0)          4.081e-05
   N2              2.041e-05   2.048e-05    -4.690    -4.689     0.002     29.29
N(3)          0.000e+00
   NO2-            0.000e+00   0.000e+00   -57.297   -57.357    -0.060     25.73
N(5)          0.000e+00
   NO3-            0.000e+00   0.000e+00   -78.074   -78.134    -0.060     31.18
O(0)          0.000e+00
   O2              0.000e+00   0.000e+00   -67.695   -67.693     0.002     31.81

------------------------------Saturation indices-------------------------------

  Phase               SI** log IAP   log K(323 K,  50 atm)

  Aragonite        -0.78     -9.28   -8.49  CaCO3
  Calcite          -0.64     -9.28   -8.64  CaCO3
  CH4(g)            1.63     -1.36   -2.99  CH4	 Pressure  46.2 atm, phi 0.922
  CO2(g)            0.47     -1.27   -1.74  CO2	 Pressure   3.6 atm, phi 0.821
  H2(g)            -5.42     -8.56   -3.14  H2
  H2O(g)           -0.90     -0.00    0.90  H2O	 Pressure   0.1 atm, phi 0.854
  N2(g)            -1.38     -4.69   -3.31  N2	 Pressure   0.0 atm, phi 1.016
  NH3(g)           -6.35     -5.04    1.31  NH3
  O2(g)           -64.64    -67.69   -3.06  O2

**For a gas, SI = log10(fugacity). Fugacity = pressure * phi / 1 atm.
  For ideal gases, phi = 1.

Reaction step 10.

Using solution 1.	Solution after simulation 1.
Using gas phase 1.	Fixed-pressure gas phase
Using temperature 1.	
Using pressure 1.	
Using reaction 1.	

Reaction 1.	

	  2.500e-01 moles of the following reaction have been added:

	                 Relative
	Reactant            moles

	CH2O(NH3)0.07        1.00000

	                 Relative
	Element             moles
	C                    1.00000
	H                    2.21000
	N                    0.07000
	O                    1.00000

-----------------------------------Gas phase-----------------------------------

Total pressure: 50.00      atmospheres          (Peng-Robinson calculation)
    Gas volume:   4.72e-02 liters
  Molar volume:   4.82e-01 liters/mole
   P * Vm / RT:  0.90905  (Compressibility Factor Z) 

                                                        Moles in gas
                                            ----------------------------------
Component         log P           P    phi     Initial       Final       Delta

CH4(g)             1.64   4.323e+01  0.923   0.000e+00   8.468e-02   8.468e-02
CO2(g)             0.81   6.444e+00  0.819   0.000e+00   1.262e-02   1.262e-02
H2O(g)            -0.83   1.490e-01  0.840   0.000e+00   2.919e-04   2.919e-04
N2(g)             -0.76   1.741e-01  1.019   0.000e+00   3.410e-04   3.410e-04

-----------------------------Solution composition------------------------------

	Elements           Molality       Moles

	C                 1.588e-01   1.588e-01
	Ca                2.498e-03   2.497e-03
	N                 1.682e-02   1.682e-02

----------------------------Description of solution----------------------------

                                       pH  =   5.553      Charge balance
                                       pe  =  -2.866      Adjusted to redox equilibrium
      Specific Conductance (µS/cm,  50°C)  = 1812
                          Density (g/cm³)  =   0.99131
                               Volume (L)  =   1.01510
                        Viscosity (mPa s)  =   0.55292
                        Activity of water  =   0.997
                 Ionic strength (mol/kgw)  =   2.413e-02
                       Mass of water (kg)  =   9.997e-01
                 Total alkalinity (eq/kg)  =   2.165e-02
                       Total CO2 (mol/kg)  =   1.182e-01
                         Temperature (°C)  =  50.00
                           Pressure (atm)  = 50.00
                  Electrical balance (eq)  =  -1.239e-09
 Percent error, 100*(Cat-|An|)/(Cat+|An|)  =  -0.00
                               Iterations  =  19
                                  Total H  = 1.112256e+02
                                  Total O  = 5.574530e+01

----------------------------Distribution of species----------------------------

                                               Log       Log       Log    mole V
   Species          Molality    Activity  Molality  Activity     Gamma   cm³/mol

   H+              3.191e-06   2.802e-06    -5.496    -5.553    -0.057      0.00
   OH-             2.383e-08   2.028e-08    -7.623    -7.693    -0.070     -3.68
   H2O             5.551e+01   9.970e-01     1.744    -0.001     0.000     18.20
C(-4)         4.065e-02
   CH4             4.065e-02   4.088e-02    -1.391    -1.389     0.002     37.36
C(4)          1.182e-01
   CO2             9.571e-02   9.606e-02    -1.019    -1.017     0.002     35.90
   HCO3-           2.163e-02   1.864e-02    -1.665    -1.730    -0.065     26.06
   (CO2)2          4.053e-04   4.068e-04    -3.392    -3.391     0.002     70.95
   CaCO3           2.069e-06   2.080e-06    -5.684    -5.682     0.002    -14.21
   CO3-2           8.526e-07   4.696e-07    -6.069    -6.328    -0.259     -2.74
   CaHCO3+         2.677e-07   2.314e-07    -6.572    -6.636    -0.063     10.50
Ca            2.498e-03
   Ca+2            2.496e-03   1.374e-03    -2.603    -2.862    -0.259    -17.41
   CaCO3           2.069e-06   2.080e-06    -5.684    -5.682     0.002    -14.21
   CaHCO3+         2.677e-07   2.314e-07    -6.572    -6.636    -0.063     10.50
   CaOH+           9.497e-11   8.124e-11   -10.022   -10.090    -0.068     (0)  
H(0)          4.596e-09
   H2              2.298e-09   2.311e-09    -8.639    -8.636     0.003     16.41
N(-3)         1.665e-02
   NH4+            1.664e-02   1.405e-02    -1.779    -1.852    -0.073     (0)  
   NH3             1.442e-05   1.450e-05    -4.841    -4.839     0.002     (0)  
N(0)          1.722e-04
   N2              8.608e-05   8.656e-05    -4.065    -4.063     0.002     29.29
N(3)          0.000e+00
   NO2-            0.000e+00   0.000e+00   -56.931   -57.003    -0.072     25.77
N(5)          0.000e+00
   NO3-            0.000e+00   0.000e+00   -77.638   -77.709    -0.072     31.21
O(0)          0.000e+00
   O2              0.000e+00   0.000e+00   -67.553   -67.551     0.002     31.81

------------------------------Saturation indices-------------------------------

  Phase               SI** log IAP   log K(323 K,  50 atm)

  Aragonite        -0.70     -9.19   -8.49  CaCO3
  Calcite          -0.55     -9.19   -8.64  CaCO3
  CH4(g)            1.60     -1.39   -2.99  CH4	 Pressure  43.2 atm, phi 0.923
  CO2(g)            0.72     -1.02   -1.74  CO2	 Pressure   6.4 atm, phi 0.819
  H2(g)            -5.50     -8.64   -3.14  H2
  H2O(g)           -0.90     -0.00    0.90  H2O	 Pressure   0.1 atm, phi 0.840
  N2(g)            -0.75     -4.06   -3.31  N2	 Pressure   0.2 atm, phi 1.019
  NH3(g)           -6.15     -4.84    1.31  NH3
  O2(g)           -64.50    -67.55   -3.06  O2

**For a gas, SI = log10(fugacity). Fugacity = pressure * phi / 1 atm.
  For ideal gases, phi = 1.

Reaction step 11.

Using solution 1.	Solution after simulation 1.
Using gas phase 1.	Fixed-pressure gas phase
Using temperature 1.	
Using pressure 1.	
Using reaction 1.	

Reaction 1.	

	  5.000e-01 moles of the following reaction have been added:

	                 Relative
	Reactant            moles

	CH2O(NH3)0.07        1.00000

	                 Relative
	Element             moles
	C                    1.00000
	H                    2.21000
	N                    0.07000
	O                    1.00000

-----------------------------------Gas phase-----------------------------------

Total pressure: 50.00      atmospheres          (Peng-Robinson calculation)
    Gas volume:   1.34e-01 liters
  Molar volume:   4.77e-01 liters/mole
   P * Vm / RT:  0.89904  (Compressibility Factor Z) 

                                                        Moles in gas
                                            ----------------------------------
Component         log P           P    phi     Initial       Final       Delta

CH4(g)             1.59   3.855e+01  0.923   0.000e+00   2.165e-01   2.165e-01
CO2(g)             1.03   1.071e+01  0.815   0.000e+00   6.018e-02   6.018e-02
H2O(g)            -0.82   1.525e-01  0.820   0.000e+00   8.564e-04   8.564e-04
N2(g)             -0.23   5.849e-01  1.024   0.000e+00   3.285e-03   3.285e-03

-----------------------------Solution composition------------------------------

	Elements           Molality       Moles

	C                 2.295e-01   2.294e-01
	Ca                2.498e-03   2.497e-03
	N                 2.844e-02   2.843e-02

----------------------------Description of solution----------------------------

                                       pH  =   5.505      Charge balance
                                       pe  =  -2.785      Adjusted to redox equilibrium
      Specific Conductance (µS/cm,  50°C)  = 2492
                          Density (g/cm³)  =   0.99251
                               Volume (L)  =   1.01740
                        Viscosity (mPa s)  =   0.55517
                        Activity of water  =   0.996
                 Ionic strength (mol/kgw)  =   3.533e-02
                       Mass of water (kg)  =   9.995e-01
                 Total alkalinity (eq/kg)  =   3.286e-02
                       Total CO2 (mol/kg)  =   1.933e-01
                         Temperature (°C)  =  50.00
                           Pressure (atm)  = 50.00
                  Electrical balance (eq)  =  -1.240e-09
 Percent error, 100*(Cat-|An|)/(Cat+|An|)  =  -0.00
                               Iterations  =  21
                                  Total H  = 1.112497e+02
                                  Total O  = 5.589963e+01

----------------------------Distribution of species----------------------------

                                               Log       Log       Log    mole V
   Species          Molality    Activity  Molality  Activity     Gamma   cm³/mol

   H+              3.621e-06   3.123e-06    -5.441    -5.505    -0.064      0.00
   OH-             2.195e-08   1.816e-08    -7.659    -7.741    -0.082     -3.63
   H2O             5.551e+01   9.956e-01     1.744    -0.002     0.000     18.20
C(-4)         3.619e-02
   CH4             3.619e-02   3.648e-02    -1.441    -1.438     0.004     37.36
C(4)          1.933e-01
   CO2             1.582e-01   1.591e-01    -0.801    -0.798     0.002     35.90
   HCO3-           3.283e-02   2.765e-02    -1.484    -1.558    -0.075     26.17
   (CO2)2          1.110e-03   1.116e-03    -2.955    -2.952     0.002     70.95
   CaCO3           2.503e-06   2.523e-06    -5.602    -5.598     0.004    -14.21
   CO3-2           1.246e-06   6.247e-07    -5.905    -6.204    -0.300     -2.57
   CaHCO3+         3.700e-07   3.129e-07    -6.432    -6.505    -0.073     10.52
Ca            2.498e-03
   Ca+2            2.495e-03   1.252e-03    -2.603    -2.902    -0.300    -17.32
   CaCO3           2.503e-06   2.523e-06    -5.602    -5.598     0.004    -14.21
   CaHCO3+         3.700e-07   3.129e-07    -6.432    -6.505    -0.073     10.52
   CaOH+           7.951e-11   6.633e-11   -10.100   -10.178    -0.079     (0)  
H(0)          3.924e-09
   H2              1.962e-09   1.979e-09    -8.707    -8.704     0.004     16.41
N(-3)         2.786e-02
   NH4+            2.784e-02   2.281e-02    -1.555    -1.642    -0.087     (0)  
   NH3             2.093e-05   2.110e-05    -4.679    -4.676     0.004     (0)  
N(0)          5.799e-04
   N2              2.899e-04   2.923e-04    -3.538    -3.534     0.004     29.29
N(3)          0.000e+00
   NO2-            0.000e+00   0.000e+00   -56.602   -56.686    -0.084     25.81
N(5)          0.000e+00
   NO3-            0.000e+00   0.000e+00   -77.241   -77.326    -0.084     31.25
O(0)          0.000e+00
   O2              0.000e+00   0.000e+00   -67.421   -67.417     0.004     31.81

------------------------------Saturation indices-------------------------------

  Phase               SI** log IAP   log K(323 K,  50 atm)

  Aragonite        -0.61     -9.11   -8.49  CaCO3
  Calcite          -0.47     -9.11   -8.64  CaCO3
  CH4(g)            1.55     -1.44   -2.99  CH4	 Pressure  38.5 atm, phi 0.923
  CO2(g)            0.94     -0.80   -1.74  CO2	 Pressure  10.7 atm, phi 0.815
  H2(g)            -5.56     -8.70   -3.14  H2
  H2O(g)           -0.90     -0.00    0.90  H2O	 Pressure   0.2 atm, phi 0.820
  N2(g)            -0.22     -3.53   -3.31  N2	 Pressure   0.6 atm, phi 1.024
  NH3(g)           -5.98     -4.68    1.31  NH3
  O2(g)           -64.36    -67.42   -3.06  O2

**For a gas, SI = log10(fugacity). Fugacity = pressure * phi / 1 atm.
  For ideal gases, phi = 1.

Reaction step 12.

Using solution 1.	Solution after simulation 1.
Using gas phase 1.	Fixed-pressure gas phase
Using temperature 1.	
Using pressure 1.	
Using reaction 1.	

Reaction 1.	

	  1.000e+00 moles of the following reaction have been added:

	                 Relative
	Reactant            moles

	CH2O(NH3)0.07        1.00000

	                 Relative
	Element             moles
	C                    1.00000
	H                    2.21000
	N                    0.07000
	O                    1.00000

-----------------------------------Gas phase-----------------------------------

Total pressure: 50.00      atmospheres          (Peng-Robinson calculation)
    Gas volume:   3.39e-01 liters
  Molar volume:   4.71e-01 liters/mole
   P * Vm / RT:  0.88771  (Compressibility Factor Z) 

                                                        Moles in gas
                                            ----------------------------------
Component         log P           P    phi     Initial       Final       Delta

CH4(g)             1.52   3.337e+01  0.925   0.000e+00   4.811e-01   4.811e-01
CO2(g)             1.19   1.537e+01  0.812   0.000e+00   2.216e-01   2.216e-01
H2O(g)            -0.81   1.564e-01  0.798   0.000e+00   2.255e-03   2.255e-03
N2(g)              0.04   1.109e+00  1.030   0.000e+00   1.599e-02   1.599e-02

-----------------------------Solution composition------------------------------

	Elements           Molality       Moles

	C                 3.035e-01   3.034e-01
	Ca                2.498e-03   2.497e-03
	N                 3.803e-02   3.802e-02

----------------------------Description of solution----------------------------

                                       pH  =   5.450      Charge balance
                                       pe  =  -2.703      Adjusted to redox equilibrium
      Specific Conductance (µS/cm,  50°C)  = 3025
                          Density (g/cm³)  =   0.99366
                               Volume (L)  =   1.02014
                        Viscosity (mPa s)  =   0.55735
                        Activity of water  =   0.994
                 Ionic strength (mol/kgw)  =   4.439e-02
                       Mass of water (kg)  =   9.997e-01
                 Total alkalinity (eq/kg)  =   4.192e-02
                       Total CO2 (mol/kg)  =   2.722e-01
                         Temperature (°C)  =  50.00
                           Pressure (atm)  = 50.00
                  Electrical balance (eq)  =  -1.240e-09
 Percent error, 100*(Cat-|An|)/(Cat+|An|)  =  -0.00
                               Iterations  =  23
                                  Total H  = 1.112935e+02
                                  Total O  = 5.607544e+01

----------------------------Distribution of species----------------------------

                                               Log       Log       Log    mole V
   Species          Molality    Activity  Molality  Activity     Gamma   cm³/mol

   H+              4.154e-06   3.545e-06    -5.382    -5.450    -0.069      0.00
   OH-             1.967e-08   1.598e-08    -7.706    -7.796    -0.090     -3.60
   H2O             5.551e+01   9.942e-01     1.744    -0.003     0.000     18.20
C(-4)         3.130e-02
   CH4             3.130e-02   3.162e-02    -1.504    -1.500     0.004     37.36
C(4)          2.722e-01
   CO2             2.257e-01   2.273e-01    -0.646    -0.643     0.003     35.90
   HCO3-           4.189e-02   3.475e-02    -1.378    -1.459    -0.081     26.25
   (CO2)2          2.262e-03   2.277e-03    -2.646    -2.643     0.003     70.95
   CaCO3           2.606e-06   2.633e-06    -5.584    -5.580     0.004    -14.21
   CO3-2           1.465e-06   6.918e-07    -5.834    -6.160    -0.326     -2.44
   CaHCO3+         4.445e-07   3.705e-07    -6.352    -6.431    -0.079     10.54
Ca            2.498e-03
   Ca+2            2.495e-03   1.179e-03    -2.603    -2.928    -0.325    -17.25
   CaCO3           2.606e-06   2.633e-06    -5.584    -5.580     0.004    -14.21
   CaHCO3+         4.445e-07   3.705e-07    -6.352    -6.431    -0.079     10.54
   CaOH+           6.698e-11   5.499e-11   -10.174   -10.260    -0.086     (0)  
H(0)          3.454e-09
   H2              1.727e-09   1.745e-09    -8.763    -8.758     0.005     16.41
N(-3)         3.692e-02
   NH4+            3.690e-02   2.961e-02    -1.433    -1.529    -0.096     (0)  
   NH3             2.390e-05   2.414e-05    -4.622    -4.617     0.004     (0)  
N(0)          1.104e-03
   N2              5.520e-04   5.576e-04    -3.258    -3.254     0.004     29.29
N(3)          0.000e+00
   NO2-            0.000e+00   0.000e+00   -56.427   -56.520    -0.093     25.83
N(5)          0.000e+00
   NO3-            0.000e+00   0.000e+00   -77.013   -77.106    -0.093     31.27
O(0)          0.000e+00
   O2              0.000e+00   0.000e+00   -67.314   -67.309     0.004     31.81

------------------------------Saturation indices-------------------------------

  Phase               SI** log IAP   log K(323 K,  50 atm)

  Aragonite        -0.60     -9.09   -8.49  CaCO3
  Calcite          -0.45     -9.09   -8.64  CaCO3
  CH4(g)            1.49     -1.50   -2.99  CH4	 Pressure  33.4 atm, phi 0.925
  CO2(g)            1.10     -0.64   -1.74  CO2	 Pressure  15.4 atm, phi 0.812
  H2(g)            -5.62     -8.76   -3.14  H2
  H2O(g)           -0.90     -0.00    0.90  H2O	 Pressure   0.2 atm, phi 0.798
  N2(g)             0.06     -3.25   -3.31  N2	 Pressure   1.1 atm, phi 1.030
  NH3(g)           -5.92     -4.62    1.31  NH3
  O2(g)           -64.25    -67.31   -3.06  O2

**For a gas, SI = log10(fugacity). Fugacity = pressure * phi / 1 atm.
  For ideal gases, phi = 1.

------------------
End of simulation.
------------------

------------------------------------
Reading input data for simulation 3.
------------------------------------

