WARNING: Database file from DATABASE keyword is used; command line argument ignored.
   Input file: ExchMixRelatedMin
  Output file: ExchMixRelatedMin.out
Database file: ../database/phreeqc.dat

------------------
Reading data base.
------------------

	SOLUTION_MASTER_SPECIES
	SOLUTION_SPECIES
	PHASES
	GAS_BINARY_PARAMETERS
	EXCHANGE_MASTER_SPECIES
	EXCHANGE_SPECIES
	SURFACE_MASTER_SPECIES
	SURFACE_SPECIES
	MEAN_GAMMAS
	RATES
	END
------------------------------------
Reading input data for simulation 1.
------------------------------------

	database ../database/phreeqc.dat
	SELECTED_OUTPUT 101
	    file                 ExchMixRelatedMin_101.sel
	USER_PUNCH 101
	    headings Mu SC
	    start
	10 PUNCH STR_F$(MU, 20, 12)
	20 PUNCH STR_F$(SC, 20, 10)
	    end
	SOLUTION 1
	 Cl 1
	 Na .1
	 pH 7 charge
	END
-------------------------------------------
Beginning of initial solution calculations.
-------------------------------------------

Initial solution 1.	

-----------------------------Solution composition------------------------------

	Elements           Molality       Moles

	Cl                1.000e-03   1.000e-03
	Na                1.000e-04   1.000e-04

----------------------------Description of solution----------------------------

                                       pH  =   3.061      Charge balance
                                       pe  =   4.000    
      Specific Conductance (µS/cm,  25°C)  = 389
                          Density (g/cm³)  =   0.99706
                               Volume (L)  =   1.00298
                        Viscosity (mPa s)  =   0.89015
                        Activity of water  =   1.000
                 Ionic strength (mol/kgw)  =   9.997e-04
                       Mass of water (kg)  =   1.000e+00
                 Total alkalinity (eq/kg)  =  -9.000e-04
                         Temperature (°C)  =  25.00
                  Electrical balance (eq)  =   6.706e-12
 Percent error, 100*(Cat-|An|)/(Cat+|An|)  =   0.00
                               Iterations  =   5
                                  Total H  = 1.110133e+02
                                  Total O  = 5.550622e+01

----------------------------Distribution of species----------------------------

                                               Log       Log       Log    mole V
   Species          Molality    Activity  Molality  Activity     Gamma   cm³/mol

   H+              8.997e-04   8.697e-04    -3.046    -3.061    -0.015      0.00
   OH-             1.206e-11   1.164e-11   -10.919   -10.934    -0.016     -4.11
   H2O             5.551e+01   1.000e+00     1.744    -0.000     0.000     18.07
Cl            1.000e-03
   Cl-             9.997e-04   9.646e-04    -3.000    -3.016    -0.016     18.07
   HCl             2.887e-07   2.890e-07    -6.540    -6.539     0.000     20.36
H(0)          1.071e-17
   H2              5.353e-18   5.354e-18   -17.271   -17.271     0.000     14.99
Na            1.000e-04
   Na+             1.000e-04   9.652e-05    -4.000    -4.015    -0.015     -1.48
O(0)          0.000e+00
   O2              0.000e+00   0.000e+00   -57.820   -57.820     0.000     30.40

------------------------------Saturation indices-------------------------------

  Phase               SI** log IAP   log K(298 K,   1 atm)

  H2(g)           -14.17    -17.27   -3.10  H2
  H2O(g)           -1.50     -0.00    1.50  H2O
  Halite           -8.60     -7.03    1.57  NaCl
  O2(g)           -54.93    -57.82   -2.89  O2

**For a gas, SI = log10(fugacity). Fugacity = pressure * phi / 1 atm.
  For ideal gases, phi = 1.

------------------
End of simulation.
------------------

------------------------------------
Reading input data for simulation 2.
------------------------------------

	EQUILIBRIUM_PHASES 1
	   Calcite 0 4e-3 
	END
------------------
End of simulation.
------------------

------------------------------------
Reading input data for simulation 3.
------------------------------------

	EXCHANGE 1
	 Ca0.5X Calcite equi 1
	 equilibrate 1
	DUMP
	-file ExchMixRelatedMin.dmp
	-equil 1
	-exchange 1 
	END
-------------------------------------------------------
Beginning of initial exchange-composition calculations.
-------------------------------------------------------

Exchange 1.	

X                4.000e-03 mol	[1 (mol Ca0.5X)/(mol Calcite)]

	                               Equiv-    Equivalent      Log 
	Species             Moles      alents      Fraction     Gamma

	NaX               4.000e-03   4.000e-03   1.000e+00    -0.015

------------------
End of simulation.
------------------

------------------------------------
Reading input data for simulation 4.
------------------------------------

	EQUILIBRIUM_PHASES_MIX 1
	  1 0.5
	DUMP
	-append
	-equil 1
	-exchange 1 
	END
------------------
End of simulation.
------------------

------------------------------------
Reading input data for simulation 5.
------------------------------------

	EQUILIBRIUM_PHASES_MODIFY
	  -component  Calcite
	  	-moles   0.001
	DUMP
	-append
	-equil 1
	-exchange 1 
	END
------------------
End of simulation.
------------------

------------------------------------
Reading input data for simulation 6.
------------------------------------

	EQUILIBRIUM_PHASES_RAW       1 
	  -new_def                   0
	  -component                 Calcite
	      -si                    0
	      -moles                 0.004
	      -force_equality        0
	      -dissolve_only         0
	      -precipitate_only      0
	      -si_org                0
	      -delta                 0
	      -initial_moles         0
	      -totals                
	  -eltList                   # List of all elements in phases and alternate reactions
	    C                        1
	    Ca                       1
	    O                        3
	  -assemblage_totals
	DUMP
	-append
	-equil 1
	-exchange 1 
	END
------------------
End of simulation.
------------------

------------------------------------
Reading input data for simulation 7.
------------------------------------

	EQUILIBRIUM_PHASES 1
	   Calcite 0 0 
	END
------------------
End of simulation.
------------------

------------------------------------
Reading input data for simulation 8.
------------------------------------

	DUMP
	-append
	-equil 1
	-exchange 1 
	END
------------------
End of simulation.
------------------

------------------------------------
Reading input data for simulation 9.
------------------------------------

	EQUILIBRIUM_PHASES 1
	   Calcite 0 2e-3 
	END
------------------
End of simulation.
------------------

-------------------------------------
Reading input data for simulation 10.
-------------------------------------

	DUMP
	-append
	-equil 1
	-exchange 1 
	END
------------------
End of simulation.
------------------

-------------------------------------
Reading input data for simulation 11.
-------------------------------------

	USE solution 1
	USE equilibrium_phases 1
	USE exchange 1
	END
-----------------------------------------
Beginning of batch-reaction calculations.
-----------------------------------------

Reaction step 1.

Using solution 1.	
Using exchange 1.	Exchange assemblage after simulation 3.
Using pure phase assemblage 1.	

-------------------------------Phase assemblage--------------------------------

                                                      Moles in assemblage
Phase               SI  log IAP  log K(T, P)   Initial       Final       Delta

Calcite           0.00    -8.45     -8.45    2.000e-03   1.101e-03  -8.993e-04

-----------------------------Exchange composition------------------------------

X                1.101e-03 mol	[1 (mol Ca0.5X)/(mol Calcite)]

	                               Equiv-    Equivalent      Log 
	Species             Moles      alents      Fraction     Gamma

	CaX2              5.496e-04   1.099e-03   9.987e-01    -0.099
	NaX               1.443e-06   1.443e-06   1.311e-03    -0.025

-----------------------------Solution composition------------------------------

	Elements           Molality       Moles

	C                 8.993e-04   8.993e-04
	Ca                9.001e-04   9.001e-04
	Cl                1.000e-03   1.000e-03
	Na                9.856e-05   9.856e-05

----------------------------Description of solution----------------------------

                                       pH  =   8.112      Charge balance
                                       pe  =  -2.318      Adjusted to redox equilibrium
      Specific Conductance (µS/cm,  25°C)  = 214
                          Density (g/cm³)  =   0.99715
                               Volume (L)  =   1.00299
                        Viscosity (mPa s)  =   0.89103
                        Activity of water  =   1.000
                 Ionic strength (mol/kgw)  =   2.787e-03
                       Mass of water (kg)  =   1.000e+00
                 Total alkalinity (eq/kg)  =   8.987e-04
                       Total CO2 (mol/kg)  =   8.993e-04
                         Temperature (°C)  =  25.00
                  Electrical balance (eq)  =   6.706e-12
 Percent error, 100*(Cat-|An|)/(Cat+|An|)  =   0.00
                               Iterations  =  17
                                  Total H  = 1.110133e+02
                                  Total O  = 5.550891e+01

----------------------------Distribution of species----------------------------

                                               Log       Log       Log    mole V
   Species          Molality    Activity  Molality  Activity     Gamma   cm³/mol

   OH-             1.388e-06   1.310e-06    -5.857    -5.883    -0.025     -4.09
   H+              8.154e-09   7.728e-09    -8.089    -8.112    -0.023      0.00
   H2O             5.551e+01   1.000e+00     1.744    -0.000     0.000     18.07
C(-4)         1.574e-27
   CH4             1.574e-27   1.575e-27   -26.803   -26.803     0.000     35.46
C(4)          8.993e-04
   HCO3-           8.727e-04   8.247e-04    -3.059    -3.084    -0.025     24.60
   CO2             1.432e-05   1.433e-05    -4.844    -4.844     0.000     34.79
   CO3-2           6.278e-06   5.004e-06    -5.202    -5.301    -0.098     -4.58
   CaCO3           5.985e-06   5.989e-06    -5.223    -5.223     0.000    -14.60
   NaHCO3          3.788e-08   3.792e-08    -7.422    -7.421     0.000     17.66
   CaHCO3+         5.448e-11   5.151e-11   -10.264   -10.288    -0.024      9.69
   (CO2)2          3.337e-12   3.338e-12   -11.477   -11.476     0.000     68.75
Ca            9.001e-04
   Ca+2            8.941e-04   7.124e-04    -3.049    -3.147    -0.099    -18.07
   CaCO3           5.985e-06   5.989e-06    -5.223    -5.223     0.000    -14.60
   CaOH+           1.621e-08   1.530e-08    -7.790    -7.815    -0.025     (0)  
   CaHCO3+         5.448e-11   5.151e-11   -10.264   -10.288    -0.024      9.69
Cl            1.000e-03
   Cl-             1.000e-03   9.434e-04    -3.000    -3.025    -0.025     18.09
   HCl             2.505e-12   2.512e-12   -11.601   -11.600     0.001     20.36
H(0)          3.660e-15
   H2              1.830e-15   1.831e-15   -14.738   -14.737     0.000     14.99
Na            9.856e-05
   Na+             9.852e-05   9.303e-05    -4.006    -4.031    -0.025     -1.45
   NaHCO3          3.788e-08   3.792e-08    -7.422    -7.421     0.000     17.66
O(0)          0.000e+00
   O2              0.000e+00   0.000e+00   -62.888   -62.888     0.000     30.40

------------------------------Saturation indices-------------------------------

  Phase               SI** log IAP   log K(298 K,   1 atm)

  Aragonite        -0.11     -8.45   -8.34  CaCO3
  Calcite           0.00     -8.45   -8.45  CaCO3
  CH4(g)          -24.00    -26.80   -2.80  CH4
  CO2(g)           -3.38     -4.84   -1.47  CO2
  H2(g)           -11.64    -14.74   -3.10  H2
  H2O(g)           -1.50     -0.00    1.50  H2O
  Halite           -8.63     -7.06    1.57  NaCl
  O2(g)           -60.00    -62.89   -2.89  O2

**For a gas, SI = log10(fugacity). Fugacity = pressure * phi / 1 atm.
  For ideal gases, phi = 1.

------------------
End of simulation.
------------------

-------------------------------------
Reading input data for simulation 12.
-------------------------------------

