WARNING: Database file from DATABASE keyword is used; command line argument ignored.
   Input file: exch_kin_related
  Output file: exch_kin_related.out
Database file: ../database/phreeqc.dat

------------------
Reading data base.
------------------

	SOLUTION_MASTER_SPECIES
	SOLUTION_SPECIES
	PHASES
	GAS_BINARY_PARAMETERS
	EXCHANGE_MASTER_SPECIES
	EXCHANGE_SPECIES
	SURFACE_MASTER_SPECIES
	SURFACE_SPECIES
	MEAN_GAMMAS
	RATES
	END
------------------------------------
Reading input data for simulation 1.
------------------------------------

	DATABASE ../database/phreeqc.dat
	SELECTED_OUTPUT 101
	    file                 exch_kin_related_101.sel
	USER_PUNCH 101
	    headings Mu SC
	    start
	10 PUNCH STR_F$(MU, 20, 12)
	20 PUNCH STR_F$(SC, 20, 10)
	    end
	RATES
	Pyrolusite
		start
	20      rem   1 hour half life
	40	moles = log(0.5) / 3600 * m * time
	50      if (moles > m) then moles = m
	60      rem print -moles
	200	save -moles
		end
	SOLUTION 1
		pH	7.0
		pe	8.0
		temp	20.0
		Ca	4.5
		Cl	9.0	charge
	SOLUTION 0 # FeCl2 injected solution
		pH	6.0
		pe	0.0
		temp	20.0
		Fe	15.5   # Analyzed: 14.55 
		Cl	31.	charge
		Mn	1e-8
		Al	1.e-8
	EXCHANGE 1
		MnX2	pyrolusite 		kine	.1
	KINETICS 1
		Pyrolusite
			formula MnO2H2O 1.0 NaF 1.0
			m	1
		steps	3600
		step_divide	100
	USE solution 0
	END
-------------------------------------------
Beginning of initial solution calculations.
-------------------------------------------

Initial solution 0.	

-----------------------------Solution composition------------------------------

	Elements           Molality       Moles

	Al                1.000e-11   1.000e-11
	Cl                3.100e-02   3.100e-02  Charge balance
	Fe                1.550e-02   1.550e-02
	Mn                1.000e-11   1.000e-11

----------------------------Description of solution----------------------------

                                       pH  =   6.000    
                                       pe  =   0.000    
      Specific Conductance (µS/cm,  20°C)  = 2950
                          Density (g/cm³)  =   0.99994
                               Volume (L)  =   1.00202
                        Viscosity (mPa s)  =   1.00439
                        Activity of water  =   0.999
                 Ionic strength (mol/kgw)  =   4.586e-02
                       Mass of water (kg)  =   1.000e+00
                 Total alkalinity (eq/kg)  =   7.903e-07
                         Temperature (°C)  =  20.00
                  Electrical balance (eq)  =  -9.670e-17
 Percent error, 100*(Cat-|An|)/(Cat+|An|)  =  -0.00
                               Iterations  =   9
                                  Total H  = 1.110124e+02
                                  Total O  = 5.550622e+01

----------------------------Distribution of species----------------------------

                                               Log       Log       Log    mole V
   Species          Molality    Activity  Molality  Activity     Gamma   cm³/mol

   H+              1.165e-06   1.000e-06    -5.934    -6.000    -0.066      0.00
   OH-             8.357e-09   6.840e-09    -8.078    -8.165    -0.087     -4.12
   H2O             5.551e+01   9.992e-01     1.744    -0.000     0.000     18.05
Al            1.000e-11
   Al(OH)2+        5.883e-12   4.909e-12   -11.230   -11.309    -0.079     (0)  
   AlOH+2          2.026e-12   9.828e-13   -11.693   -12.008    -0.314    -27.12
   Al(OH)4-        1.058e-12   8.754e-13   -11.975   -12.058    -0.082     (0)  
   Al+3            5.444e-13   1.376e-13   -12.264   -12.862    -0.597    -41.09
   Al(OH)3         4.888e-13   4.940e-13   -12.311   -12.306     0.005     (0)  
Cl            3.100e-02
   Cl-             3.068e-02   2.520e-02    -1.513    -1.599    -0.086     18.07
   FeCl+           3.163e-04   2.617e-04    -3.500    -3.582    -0.082     (0)  
   HCl             8.560e-09   8.954e-09    -8.068    -8.048     0.020     19.99
   MnCl+           5.763e-13   4.791e-13   -12.239   -12.320    -0.080     -4.33
   MnCl2           5.215e-15   5.270e-15   -14.283   -14.278     0.005     92.48
   FeCl+2          7.370e-16   3.522e-16   -15.133   -15.453    -0.321     (0)  
   FeCl2+          5.602e-17   4.657e-17   -16.252   -16.332    -0.080     (0)  
   MnCl3-          4.399e-17   3.657e-17   -16.357   -16.437    -0.080     43.80
   FeCl3           1.161e-19   1.174e-19   -18.935   -18.931     0.005     (0)  
Fe(2)         1.550e-02
   Fe+2            1.518e-02   7.524e-03    -1.819    -2.124    -0.305    -22.00
   FeCl+           3.163e-04   2.617e-04    -3.500    -3.582    -0.082     (0)  
   FeOH+           1.956e-06   1.626e-06    -5.709    -5.789    -0.080     (0)  
   Fe(OH)2         8.792e-12   8.885e-12   -11.056   -11.051     0.005     (0)  
   Fe(OH)3-        3.774e-16   3.138e-16   -15.423   -15.503    -0.080     (0)  
Fe(3)         9.281e-10
   Fe(OH)2+        8.502e-10   7.095e-10    -9.070    -9.149    -0.079     (0)  
   Fe(OH)3         7.241e-11   7.317e-11   -10.140   -10.136     0.005     (0)  
   FeOH+2          5.442e-12   2.601e-12   -11.264   -11.585    -0.321     (0)  
   Fe(OH)4-        6.513e-14   5.436e-14   -13.186   -13.265    -0.079     (0)  
   Fe+3            2.152e-15   5.438e-16   -14.667   -15.265    -0.597     (0)  
   FeCl+2          7.370e-16   3.522e-16   -15.133   -15.453    -0.321     (0)  
   FeCl2+          5.602e-17   4.657e-17   -16.252   -16.332    -0.080     (0)  
   FeCl3           1.161e-19   1.174e-19   -18.935   -18.931     0.005     (0)  
   Fe2(OH)2+4      4.649e-21   2.246e-22   -20.333   -21.649    -1.316     (0)  
   Fe3(OH)4+5      6.059e-27   5.323e-29   -26.218   -28.274    -2.056     (0)  
H(0)          1.473e-15
   H2              7.365e-16   7.447e-16   -15.133   -15.128     0.005     14.60
Mn(2)         1.000e-11
   Mn+2            9.418e-12   4.668e-12   -11.026   -11.331    -0.305    -18.90
   MnCl+           5.763e-13   4.791e-13   -12.239   -12.320    -0.080     -4.33
   MnCl2           5.215e-15   5.270e-15   -14.283   -14.278     0.005     92.48
   MnOH+           9.526e-17   7.920e-17   -16.021   -16.101    -0.080     (0)  
   MnCl3-          4.399e-17   3.657e-17   -16.357   -16.437    -0.080     43.80
   Mn(OH)3-        8.877e-29   7.380e-29   -28.052   -28.132    -0.080     (0)  
Mn(3)         2.716e-37
   Mn+3            2.716e-37   6.864e-38   -36.566   -37.163    -0.597     (0)  
O(0)          0.000e+00
   O2              0.000e+00   0.000e+00   -63.801   -63.797     0.005     29.98

------------------------------Saturation indices-------------------------------

  Phase               SI** log IAP   log K(293 K,   1 atm)

  Al(OH)3(a)       -5.99      5.14   11.13  Al(OH)3
  Fe(OH)3(a)       -2.16      2.73    4.89  Fe(OH)3
  Gibbsite         -3.26      5.14    8.40  Al(OH)3
  Goethite          3.55      2.73   -0.82  FeOOH
  H2(g)           -12.04    -15.13   -3.09  H2
  H2O(g)           -1.63     -0.00    1.63  H2O
  Hausmannite     -48.28     14.01   62.29  Mn3O4
  Hematite          9.09      5.47   -3.62  Fe2O3
  Manganite       -18.67      6.67   25.34  MnOOH
  O2(g)           -60.94    -63.80   -2.85  O2
  Pyrochroite     -14.53      0.67   15.20  Mn(OH)2
  Pyrolusite      -29.53     12.67   42.19  MnO2:H2O

**For a gas, SI = log10(fugacity). Fugacity = pressure * phi / 1 atm.
  For ideal gases, phi = 1.

Initial solution 1.	

-----------------------------Solution composition------------------------------

	Elements           Molality       Moles

	Ca                4.500e-03   4.500e-03
	Cl                9.000e-03   9.000e-03  Charge balance

----------------------------Description of solution----------------------------

                                       pH  =   7.000    
                                       pe  =   8.000    
      Specific Conductance (µS/cm,  20°C)  = 981
                          Density (g/cm³)  =   0.99862
                               Volume (L)  =   1.00188
                        Viscosity (mPa s)  =   1.00434
                        Activity of water  =   1.000
                 Ionic strength (mol/kgw)  =   1.350e-02
                       Mass of water (kg)  =   1.000e+00
                 Total alkalinity (eq/kg)  =  -2.841e-08
                         Temperature (°C)  =  20.00
                  Electrical balance (eq)  =  -2.175e-19
 Percent error, 100*(Cat-|An|)/(Cat+|An|)  =  -0.00
                               Iterations  =   9 (18 overall)
                                  Total H  = 1.110124e+02
                                  Total O  = 5.550622e+01

----------------------------Distribution of species----------------------------

                                               Log       Log       Log    mole V
   Species          Molality    Activity  Molality  Activity     Gamma   cm³/mol

   H+              1.106e-07   1.000e-07    -6.956    -7.000    -0.044      0.00
   OH-             7.712e-08   6.844e-08    -7.113    -7.165    -0.052     -4.24
   H2O             5.551e+01   9.998e-01     1.744    -0.000     0.000     18.05
Ca            4.500e-03
   Ca+2            4.500e-03   2.871e-03    -2.347    -2.542    -0.195    -17.96
   CaOH+           5.351e-09   4.763e-09    -8.272    -8.322    -0.051     (0)  
Cl            9.000e-03
   Cl-             9.000e-03   7.995e-03    -2.046    -2.097    -0.051     17.98
   HCl             2.804e-10   2.841e-10    -9.552    -9.547     0.006     19.99
H(0)          1.485e-33
   H2              7.423e-34   7.447e-34   -33.129   -33.128     0.001     14.60
O(0)          3.189e-28
   O2              1.594e-28   1.599e-28   -27.797   -27.796     0.001     29.98

------------------------------Saturation indices-------------------------------

  Phase               SI** log IAP   log K(293 K,   1 atm)

  H2(g)           -30.04    -33.13   -3.09  H2
  H2O(g)           -1.63     -0.00    1.63  H2O
  O2(g)           -24.94    -27.80   -2.85  O2

**For a gas, SI = log10(fugacity). Fugacity = pressure * phi / 1 atm.
  For ideal gases, phi = 1.

-----------------------------------------
Beginning of batch-reaction calculations.
-----------------------------------------

Reaction step 1.

Using solution 0.	
Using exchange 1.	
Using kinetics 1.	

Kinetics 1.	

	Time step: 3600 seconds

	Rate name       Delta Moles Total Moles   Reactant        Coefficient

	Pyrolusite       -5.000e-01   5.000e-01   MnO2H2O                   1
	                                          NaF                       1

-----------------------------Exchange composition------------------------------

X                1.000e-01 mol	[0.1 (mol MnX2)/(mol kinetic reactant Pyrolusite)]

	                               Equiv-    Equivalent      Log 
	Species             Moles      alents      Fraction     Gamma

	NaX               6.804e-02   6.804e-02   6.804e-01    -0.140
	MnX2              1.598e-02   3.196e-02   3.196e-01    -0.657
	FeX2              3.003e-25   6.006e-25   6.006e-24    -0.657
	AlOHX2            4.607e-30   9.215e-30   9.215e-29     0.117
	AlX3              3.705e-36   1.111e-35   1.111e-34    -1.120

-----------------------------Solution composition------------------------------

	Elements           Molality       Moles

	Al                1.000e-11   1.000e-11
	Cl                3.100e-02   3.100e-02
	F                 5.001e-01   5.000e-01
	Fe                1.550e-02   1.550e-02
	Mn                5.341e-01   5.340e-01
	Na                4.320e-01   4.320e-01

----------------------------Description of solution----------------------------

                                       pH  =  12.032      Charge balance
                                       pe  =   9.791      Adjusted to redox equilibrium
      Specific Conductance (µS/cm,  20°C)  = 33361
                          Density (g/cm³)  =   1.06636
                               Volume (L)  =   1.00879
                        Viscosity (mPa s)  =   1.11264
                        Activity of water  =   0.970
                 Ionic strength (mol/kgw)  =   8.071e-01
                       Mass of water (kg)  =   9.999e-01
                 Total alkalinity (eq/kg)  =   9.846e-01
                         Temperature (°C)  =  20.00
                  Electrical balance (eq)  =   3.757e-10
 Percent error, 100*(Cat-|An|)/(Cat+|An|)  =   0.00
                               Iterations  = 373
                                  Total H  = 1.120124e+02
                                  Total O  = 5.700622e+01

----------------------------Distribution of species----------------------------

                                               Log       Log       Log    mole V
   Species          Molality    Activity  Molality  Activity     Gamma   cm³/mol

   OH-             1.198e-02   7.154e-03    -1.922    -2.145    -0.224     -2.67
   H+              1.237e-12   9.285e-13   -11.908   -12.032    -0.124      0.00
   H2O             5.551e+01   9.704e-01     1.744    -0.013     0.000     18.05
Al            1.000e-11
   Al(OH)4-        1.000e-11   6.377e-12   -11.000   -11.195    -0.195     (0)  
   Al(OH)3         2.857e-18   3.441e-18   -17.544   -17.463     0.081     (0)  
   AlF4-           1.994e-19   1.271e-19   -18.700   -18.896    -0.195     (0)  
   AlF3            9.373e-22   1.129e-21   -21.028   -20.947     0.081     (0)  
   Al(OH)2+        4.897e-23   3.269e-23   -22.310   -22.486    -0.175     (0)  
   AlF2+           4.765e-25   3.181e-25   -24.322   -24.497    -0.175     (0)  
   AlOH+2          3.149e-29   6.258e-30   -28.502   -29.204    -0.702    -26.43
   AlF+2           1.158e-29   2.301e-30   -28.936   -29.638    -0.702     (0)  
   Al+3            1.105e-35   8.375e-37   -34.957   -36.077    -1.120    -39.89
Cl            3.100e-02
   Cl-             3.000e-02   1.867e-02    -1.523    -1.729    -0.206     18.67
   MnCl+           9.947e-04   6.514e-04    -3.002    -3.186    -0.184     -4.14
   MnCl2           4.409e-06   5.310e-06    -5.356    -5.275     0.081     92.48
   MnCl3-          4.170e-08   2.731e-08    -7.380    -7.564    -0.184     46.21
   HCl             2.793e-15   6.161e-15   -14.554   -14.210     0.344     19.99
   FeCl+           6.527e-27   4.987e-27   -26.185   -26.302    -0.117     (0)  
   FeCl+2          2.256e-28   4.150e-29   -27.647   -28.382    -0.735     (0)  
   FeCl2+          6.210e-30   4.067e-30   -29.207   -29.391    -0.184     (0)  
   FeCl3           6.306e-33   7.594e-33   -32.200   -32.120     0.081     (0)  
F             5.001e-01
   F-              4.742e-01   2.833e-01    -0.324    -0.548    -0.224      0.30
   MnF+            2.563e-02   1.678e-02    -1.591    -1.775    -0.184     (0)  
   NaF             2.141e-04   3.105e-04    -3.669    -3.508     0.161      8.09
   HF2-            4.923e-10   3.761e-10    -9.308    -9.425    -0.117     22.59
   HF              2.997e-10   3.609e-10    -9.523    -9.443     0.081     12.26
   FeF3            1.397e-16   1.683e-16   -15.855   -15.774     0.081     (0)  
   FeF2+           5.822e-19   3.813e-19   -18.235   -18.419    -0.184     (0)  
   AlF4-           1.994e-19   1.271e-19   -18.700   -18.896    -0.195     (0)  
   AlF3            9.373e-22   1.129e-21   -21.028   -20.947     0.081     (0)  
   FeF+2           1.952e-22   3.592e-23   -21.709   -22.445    -0.735     (0)  
   FeF+            7.173e-25   5.481e-25   -24.144   -24.261    -0.117     (0)  
   AlF2+           4.765e-25   3.181e-25   -24.322   -24.497    -0.175     (0)  
   AlF+2           1.158e-29   2.301e-30   -28.936   -29.638    -0.702     (0)  
Fe(2)         1.437e-20
   Fe(OH)3-        1.409e-20   9.231e-21   -19.851   -20.035    -0.184     (0)  
   Fe(OH)2         2.075e-22   2.499e-22   -21.683   -21.602     0.081     (0)  
   FeOH+           6.677e-23   4.373e-23   -22.175   -22.359    -0.184     (0)  
   Fe+2            8.782e-25   1.935e-25   -24.056   -24.713    -0.657    -20.95
   FeF+            7.173e-25   5.481e-25   -24.144   -24.261    -0.117     (0)  
   FeCl+           6.527e-27   4.987e-27   -26.185   -26.302    -0.117     (0)  
Fe(3)         1.550e-02
   Fe(OH)4-        1.549e-02   1.034e-02    -1.810    -1.985    -0.175     (0)  
   Fe(OH)3         1.105e-05   1.331e-05    -4.956    -4.876     0.081     (0)  
   Fe(OH)2+        1.849e-10   1.234e-10    -9.733    -9.909    -0.175     (0)  
   FeF3            1.397e-16   1.683e-16   -15.855   -15.774     0.081     (0)  
   FeOH+2          2.351e-18   4.325e-19   -17.629   -18.364    -0.735     (0)  
   FeF2+           5.822e-19   3.813e-19   -18.235   -18.419    -0.184     (0)  
   FeF+2           1.952e-22   3.592e-23   -21.709   -22.445    -0.735     (0)  
   Fe+3            1.141e-27   8.648e-29   -26.943   -28.063    -1.120     (0)  
   FeCl+2          2.256e-28   4.150e-29   -27.647   -28.382    -0.735     (0)  
   FeCl2+          6.210e-30   4.067e-30   -29.207   -29.391    -0.184     (0)  
   FeCl3           6.306e-33   7.594e-33   -32.200   -32.120     0.081     (0)  
   Fe2(OH)2+4      4.607e-34   6.213e-36   -33.337   -35.207    -1.870     (0)  
   Fe3(OH)4+5      2.141e-40   0.000e+00   -39.669   -42.592    -2.922     (0)  
H(0)          0.000e+00
   H2              0.000e+00   0.000e+00   -46.860   -46.775     0.085     14.60
Mn(2)         5.341e-01
   Mn(OH)3-        2.365e-01   1.549e-01    -0.626    -0.810    -0.184     (0)  
   MnOH+           2.321e-01   1.520e-01    -0.634    -0.818    -0.184     (0)  
   Mn+2            3.887e-02   8.564e-03    -1.410    -2.067    -0.657    -16.29
   MnF+            2.563e-02   1.678e-02    -1.591    -1.775    -0.184     (0)  
   MnCl+           9.947e-04   6.514e-04    -3.002    -3.186    -0.184     -4.14
   MnCl2           4.409e-06   5.310e-06    -5.356    -5.275     0.081     92.48
   MnCl3-          4.170e-08   2.731e-08    -7.380    -7.564    -0.184     46.21
Mn(3)         1.028e-17
   Mn+3            1.028e-17   7.788e-19   -16.988   -18.109    -1.120     (0)  
Na            4.320e-01
   Na+             4.318e-01   3.126e-01    -0.365    -0.505    -0.140     -0.65
   NaF             2.141e-04   3.105e-04    -3.669    -3.508     0.161      8.09
O(0)          4.923e-01
   O2              2.462e-01   2.964e-01    -0.609    -0.528     0.081     29.98

------------------------------Saturation indices-------------------------------

  Phase               SI** log IAP   log K(293 K,   1 atm)

  Al(OH)3(a)      -11.15     -0.02   11.13  Al(OH)3
  Fe(OH)3(a)        3.10      7.99    4.89  Fe(OH)3
  Gibbsite         -8.41     -0.02    8.40  Al(OH)3
  Goethite          8.83      8.01   -0.82  FeOOH
  H2(g)           -43.69    -46.77   -3.09  H2
  H2O(g)           -1.65     -0.01    1.63  H2O
  Halite           -3.80     -2.23    1.57  NaCl
  Hausmannite      47.30    109.59   62.29  Mn3O4
  Hematite         19.65     16.03   -3.62  Fe2O3
  Manganite        18.45     43.79   25.34  MnOOH
  O2(g)             2.33     -0.53   -2.85  O2
  Pyrochroite       6.77     21.97   15.20  Mn(OH)2
  Pyrolusite       23.41     65.60   42.19  MnO2:H2O

**For a gas, SI = log10(fugacity). Fugacity = pressure * phi / 1 atm.
  For ideal gases, phi = 1.

------------------
End of simulation.
------------------

------------------------------------
Reading input data for simulation 2.
------------------------------------

