WARNING: Database file from DATABASE keyword is used; command line argument ignored.
   Input file: f_viscos
  Output file: f_viscos.out
Database file: ../database/Amm.dat

------------------
Reading data base.
------------------

	SOLUTION_MASTER_SPECIES
	SOLUTION_SPECIES
	PHASES
	GAS_BINARY_PARAMETERS
	EXCHANGE_MASTER_SPECIES
	EXCHANGE_SPECIES
	SURFACE_MASTER_SPECIES
	SURFACE_SPECIES
	MEAN_GAMMAS
	RATES
	END
------------------------------------
Reading input data for simulation 1.
------------------------------------

	DATABASE ../database/Amm.dat
	SELECTED_OUTPUT 101
	    file                 f_viscos_101.sel
	USER_PUNCH 101
	    headings Mu SC
	    start
	10 PUNCH STR_F$(MU, 20, 12)
	20 PUNCH STR_F$(SC, 20, 10)
	    end
	SOLUTION_SPREAD
	units mol/kgw
	number	Na	K	Amm	Cl	Br	S(6)	pH
	21	0	2	2	0		2	7 charge
	USER_PRINT
	10  dim x(100)
	20  x(1 ) = f_visc("Na+")
	30  x(2 ) = f_visc("NaSO4-")
	40  x(3 ) = f_visc("K+")
	50  x(4 ) = f_visc("KSO4-")
	60  x(5 ) = f_visc("AmmH+")
	70  x(6 ) = f_visc("AmmHSO4-")
	72  x(7 ) = f_visc("Amm")
	80  x(8 ) = f_visc("SO4-2")
	90  x(9 ) = f_visc("H+")
	100 x(10) = f_visc("OH-")
	110 x(11) = f_visc("Cl-")
	110 for i = 1 to 11 : s = s + x(i) : print x(i) : next i : print s
-------------------------------------------
Beginning of initial solution calculations.
-------------------------------------------

Initial solution 21.	

----------------------------------User print-----------------------------------

           0 
           0 
 -7.2214e-03 
  1.0697e-01 
 -2.1951e-02 
  7.2421e-01 
  8.9648e-08 
  1.9797e-01 
  7.1198e-07 
  1.4215e-09 
           0 
  9.9998e-01 

-----------------------------Solution composition------------------------------

	Elements           Molality       Moles

	Amm               2.000e+00   2.000e+00
	K                 2.000e+00   2.000e+00
	S(6)              2.000e+00   2.000e+00

----------------------------Description of solution----------------------------

                                       pH  =   5.335      Charge balance
                                       pe  =   4.000    
      Specific Conductance (µS/cm,  25°C)  = 211614
                          Density (g/cm³)  =   1.16734
                               Volume (L)  =   1.11914
                        Viscosity (mPa s)  =   1.35118
                        Activity of water  =   0.922
                 Ionic strength (mol/kgw)  =   3.148e+00
                       Mass of water (kg)  =   1.000e+00
                 Total alkalinity (eq/kg)  =   1.909e-15
                         Temperature (°C)  =  25.00
                  Electrical balance (eq)  =   1.045e-10
 Percent error, 100*(Cat-|An|)/(Cat+|An|)  =   0.00
                               Iterations  =   7
                                  Total H  = 1.130124e+02
                                  Total O  = 6.350622e+01

----------------------------Distribution of species----------------------------

                                               Log       Log       Log    mole V
   Species          Molality    Activity  Molality  Activity     Gamma   cm³/mol

   H+              6.462e-06   4.629e-06    -5.190    -5.335    -0.145      0.00
   OH-             4.002e-09   2.017e-09    -8.398    -8.695    -0.298      0.97
   H2O             5.551e+01   9.222e-01     1.744    -0.035     0.000     18.07
Amm           2.000e+00
   AmmHSO4-        1.118e+00   4.350e-01     0.048    -0.361    -0.410     46.59
   AmmH+           8.821e-01   3.778e-01    -0.054    -0.423    -0.368     18.92
   Amm             2.253e-05   4.651e-05    -4.647    -4.332     0.315     24.42
H(0)          1.417e-22
   H2              7.085e-23   1.517e-22   -22.150   -21.819     0.331     14.99
K             2.000e+00
   K+              1.692e+00   9.505e-01     0.228    -0.022    -0.250     10.86
   KSO4-           3.080e-01   7.388e-01    -0.511    -0.131     0.380     48.83
O(0)          0.000e+00
   O2              0.000e+00   0.000e+00   -49.110   -48.795     0.315     30.40
S(6)          2.000e+00
   AmmHSO4-        1.118e+00   4.350e-01     0.048    -0.361    -0.410     46.59
   SO4-2           5.741e-01   5.109e-02    -0.241    -1.292    -1.051     24.36
   KSO4-           3.080e-01   7.388e-01    -0.511    -0.131     0.380     48.83
   HSO4-           1.607e-05   2.299e-05    -4.794    -4.638     0.156     41.65

------------------------------Saturation indices-------------------------------

  Phase               SI** log IAP   log K(298 K,   1 atm)

  Amm(g)           -6.13     -4.33    1.80  Amm
  Arcanite          0.54     -1.34   -1.88  K2SO4
  H2(g)           -18.72    -21.82   -3.10  H2
  H2O(g)           -1.54     -0.04    1.50  H2O
  O2(g)           -45.90    -48.79   -2.89  O2

**For a gas, SI = log10(fugacity). Fugacity = pressure * phi / 1 atm.
  For ideal gases, phi = 1.

------------------
End of simulation.
------------------

------------------------------------
Reading input data for simulation 2.
------------------------------------

