WARNING: Database file from DATABASE keyword is used; command line argument ignored.
   Input file: fix_V
  Output file: fix_V.out
Database file: ../database/phreeqc.dat

------------------
Reading data base.
------------------

	SOLUTION_MASTER_SPECIES
	SOLUTION_SPECIES
	PHASES
	GAS_BINARY_PARAMETERS
	EXCHANGE_MASTER_SPECIES
	EXCHANGE_SPECIES
	SURFACE_MASTER_SPECIES
	SURFACE_SPECIES
	MEAN_GAMMAS
	RATES
	END
------------------------------------
Reading input data for simulation 1.
------------------------------------

	DATABASE ../database/phreeqc.dat
	SELECTED_OUTPUT 101
	    file                 fix_V_101.sel
	USER_PUNCH 101
	    headings Mu SC
	    start
	10 PUNCH STR_F$(MU, 20, 12)
	20 PUNCH STR_F$(SC, 20, 10)
	    end
	GAS_PHASE 1
	     fixed_volume
	     CO2(g) 10
		 pressure 1000
	SOLUTION 1
	 pH 7 charge
	 Ca 1 Calcite
	 C(4) 1 CO2(g) 0
	EQUILIBRIUM_PHASES 1
	 Calcite
	SAVE solution 1
	END
-------------------------------------------
Beginning of initial solution calculations.
-------------------------------------------

Initial solution 1.	

-----------------------------Solution composition------------------------------

	Elements           Molality       Moles

	C(4)              5.147e-02   5.147e-02  Equilibrium with CO2(g)
	Ca                8.868e-03   8.868e-03  Equilibrium with Calcite

----------------------------Description of solution----------------------------

                                       pH  =   6.007      Charge balance
                                       pe  =   4.000    
      Specific Conductance (µS/cm,  25°C)  = 1545
                          Density (g/cm³)  =   0.99851
                               Volume (L)  =   1.00442
                        Viscosity (mPa s)  =   0.89983
                        Activity of water  =   0.999
                 Ionic strength (mol/kgw)  =   2.659e-02
                       Mass of water (kg)  =   1.000e+00
                 Total alkalinity (eq/kg)  =   1.774e-02
                       Total CO2 (mol/kg)  =   5.147e-02
                         Temperature (°C)  =  25.00
                  Electrical balance (eq)  =  -3.078e-15
 Percent error, 100*(Cat-|An|)/(Cat+|An|)  =  -0.00
                               Iterations  =   8
                                  Total H  = 1.110302e+02
                                  Total O  = 5.562689e+01

----------------------------Distribution of species----------------------------

                                               Log       Log       Log    mole V
   Species          Molality    Activity  Molality  Activity     Gamma   cm³/mol

   H+              1.119e-06   9.837e-07    -5.951    -6.007    -0.056      0.00
   OH-             1.208e-08   1.028e-08    -7.918    -7.988    -0.070     -3.96
   H2O             5.551e+01   9.990e-01     1.744    -0.000     0.000     18.07
C(4)          5.147e-02
   CO2             3.370e-02   3.384e-02    -1.472    -1.471     0.002     34.79
   HCO3-           1.772e-02   1.528e-02    -1.751    -1.816    -0.064     24.87
   (CO2)2          1.854e-05   1.862e-05    -4.732    -4.730     0.002     68.75
   CaCO3           5.952e-06   5.989e-06    -5.225    -5.223     0.003    -14.60
   CO3-2           1.320e-06   7.286e-07    -5.879    -6.137    -0.258     -4.04
   CaHCO3+         7.579e-09   6.556e-09    -8.120    -8.183    -0.063      9.76
Ca            8.868e-03
   Ca+2            8.862e-03   4.893e-03    -2.052    -2.310    -0.258    -17.76
   CaCO3           5.952e-06   5.989e-06    -5.225    -5.223     0.003    -14.60
   CaHCO3+         7.579e-09   6.556e-09    -8.120    -8.183    -0.063      9.76
   CaOH+           9.631e-10   8.246e-10    -9.016    -9.084    -0.067     (0)  
H(0)          1.361e-23
   H2              6.807e-24   6.851e-24   -23.167   -23.164     0.003     14.99
O(0)          0.000e+00
   O2              0.000e+00   0.000e+00   -46.038   -46.035     0.003     30.40

------------------------------Saturation indices-------------------------------

  Phase               SI** log IAP   log K(298 K,   1 atm)

  Aragonite        -0.11     -8.45   -8.34  CaCO3
  Calcite           0.00     -8.45   -8.45  CaCO3
  CO2(g)           -0.00     -1.47   -1.47  CO2	 Pressure   1.0 atm, phi 0.994
  H2(g)           -20.06    -23.16   -3.10  H2
  H2O(g)           -1.50     -0.00    1.50  H2O
  O2(g)           -43.14    -46.03   -2.89  O2

**For a gas, SI = log10(fugacity). Fugacity = pressure * phi / 1 atm.
  For ideal gases, phi = 1.

-----------------------------------------
Beginning of batch-reaction calculations.
-----------------------------------------

Reaction step 1.

Using solution 1.	
Using pure phase assemblage 1.	
Using gas phase 1.	

-----------------------------------Gas phase-----------------------------------

Total pressure:  6.12      atmospheres          (Peng-Robinson calculation)
    Gas volume:   1.00e+00 liters
  Molar volume:   3.86e+00 liters/mole
   P * Vm / RT:  0.96553  (Compressibility Factor Z) 

                                                        Moles in gas
                                            ----------------------------------
Component         log P           P    phi     Initial       Final       Delta

CO2(g)             0.79   6.120e+00  0.966   4.334e-01   2.591e-01  -1.743e-01

-------------------------------Phase assemblage--------------------------------

                                                      Moles in assemblage
Phase               SI  log IAP  log K(T, P)   Initial       Final       Delta

Calcite          -0.00    -8.44     -8.44    1.000e+01   9.991e+00  -8.604e-03

-----------------------------Solution composition------------------------------

	Elements           Molality       Moles

	C                 2.345e-01   2.344e-01
	Ca                1.748e-02   1.747e-02

----------------------------Description of solution----------------------------

                                       pH  =   5.511      Charge balance
                                       pe  =   0.650      Adjusted to redox equilibrium
      Specific Conductance (µS/cm,  25°C)  = 2848
                          Density (g/cm³)  =   1.00136
                               Volume (L)  =   1.01009
                        Viscosity (mPa s)  =   0.91715
                        Activity of water  =   0.996
                 Ionic strength (mol/kgw)  =   5.241e-02
                       Mass of water (kg)  =   9.998e-01
                 Total alkalinity (eq/kg)  =   3.495e-02
                       Total CO2 (mol/kg)  =   2.345e-01
                         Temperature (°C)  =  25.00
                           Pressure (atm)  =  6.12
                  Electrical balance (eq)  =   8.929e-11
 Percent error, 100*(Cat-|An|)/(Cat+|An|)  =   0.00
                               Iterations  =  32
                                  Total H  = 1.110302e+02
                                  Total O  = 5.600139e+01

----------------------------Distribution of species----------------------------

                                               Log       Log       Log    mole V
   Species          Molality    Activity  Molality  Activity     Gamma   cm³/mol

   H+              3.617e-06   3.081e-06    -5.442    -5.511    -0.070      0.00
   OH-             4.065e-09   3.286e-09    -8.391    -8.483    -0.092     -3.85
   H2O             5.551e+01   9.957e-01     1.744    -0.002     0.000     18.07
C(-4)         2.498e-26
   CH4             2.498e-26   2.528e-26   -25.602   -25.597     0.005     35.46
C(4)          2.345e-01
   CO2             1.982e-01   1.998e-01    -0.703    -0.699     0.003     34.79
   HCO3-           3.494e-02   2.889e-02    -1.457    -1.539    -0.083     25.09
   (CO2)2          6.440e-04   6.491e-04    -3.191    -3.188     0.003     68.74
   CaCO3           5.981e-06   6.054e-06    -5.223    -5.218     0.005    -14.56
   CO3-2           9.503e-07   4.424e-07    -6.022    -6.354    -0.332     -3.67
   CaHCO3+         2.485e-08   2.065e-08    -7.605    -7.685    -0.080      9.81
Ca            1.748e-02
   Ca+2            1.747e-02   8.158e-03    -1.758    -2.088    -0.331    -17.57
   CaCO3           5.981e-06   6.054e-06    -5.223    -5.218     0.005    -14.56
   CaHCO3+         2.485e-08   2.065e-08    -7.605    -7.685    -0.080      9.81
   CaOH+           5.346e-10   4.376e-10    -9.272    -9.359    -0.087     (0)  
H(0)          6.638e-16
   H2              3.319e-16   3.362e-16   -15.479   -15.473     0.006     14.99
O(0)          0.000e+00
   O2              0.000e+00   0.000e+00   -61.427   -61.422     0.005     30.39

------------------------------Saturation indices-------------------------------

  Phase               SI** log IAP   log K(298 K,   6 atm)

  Aragonite        -0.11     -8.44   -8.33  CaCO3
  Calcite          -0.00     -8.44   -8.44  CaCO3
  CH4(g)          -22.79    -25.60   -2.81  CH4
  CO2(g)            0.77     -0.70   -1.47  CO2	 Pressure   6.1 atm, phi 0.966
  H2(g)           -12.37    -15.47   -3.10  H2
  H2O(g)           -1.50     -0.00    1.50  H2O
  O2(g)           -58.53    -61.42   -2.90  O2

**For a gas, SI = log10(fugacity). Fugacity = pressure * phi / 1 atm.
  For ideal gases, phi = 1.

------------------
End of simulation.
------------------

------------------------------------
Reading input data for simulation 2.
------------------------------------

	GAS_PHASE 1
	     fixed_volume
	     CO2(g) 100
		 pressure 1000
		 equilibrate 1
	USE solution 1
	 USE equilibrium_phases 1
	END
--------------------------------------------------------
Beginning of initial gas_phase-composition calculations.
--------------------------------------------------------

Gas_Phase 1.	

-----------------------------------Gas phase-----------------------------------

Total pressure:  5.91      atmospheres 
    Gas volume:   1.00e+00 liters
  Molar volume:   4.14e+00 liters/mole

                                                        Moles in gas
                                            ----------------------------------
Component                log P           P     Initial       Final       Delta

CO2(g)                    0.79   5.915e+00   2.418e-01   2.418e-01   0.000e+00


While initializing gas phase composition by equilibrating:
     Found definitions of gas critical temperature and pressure.
     Going to use Peng-Robinson in subsequent calculations.
-----------------------------------------
Beginning of batch-reaction calculations.
-----------------------------------------

Reaction step 1.

Using solution 1.	Solution after simulation 1.
Using pure phase assemblage 1.	
Using gas phase 1.	Gas phase after simulation 2.

-----------------------------------Gas phase-----------------------------------

Total pressure:  5.89      atmospheres          (Peng-Robinson calculation)
    Gas volume:   1.00e+00 liters
  Molar volume:   4.01e+00 liters/mole
   P * Vm / RT:  0.96683  (Compressibility Factor Z) 

                                                        Moles in gas
                                            ----------------------------------
Component         log P           P    phi     Initial       Final       Delta

CO2(g)             0.77   5.893e+00  0.968   2.418e-01   2.491e-01   7.371e-03

-------------------------------Phase assemblage--------------------------------

                                                      Moles in assemblage
Phase               SI  log IAP  log K(T, P)   Initial       Final       Delta

Calcite           0.00    -8.44     -8.44    1.000e+01   1.000e+01   2.442e-04

-----------------------------Solution composition------------------------------

	Elements           Molality       Moles

	C                 2.268e-01   2.268e-01
	Ca                1.723e-02   1.723e-02

----------------------------Description of solution----------------------------

                                       pH  =   5.521      Charge balance
                                       pe  =   0.626      Adjusted to redox equilibrium
      Specific Conductance (µS/cm,  25°C)  = 2814
                          Density (g/cm³)  =   1.00125
                               Volume (L)  =   1.00985
                        Viscosity (mPa s)  =   0.91650
                        Activity of water  =   0.996
                 Ionic strength (mol/kgw)  =   5.168e-02
                       Mass of water (kg)  =   9.998e-01
                 Total alkalinity (eq/kg)  =   3.446e-02
                       Total CO2 (mol/kg)  =   2.268e-01
                         Temperature (°C)  =  25.00
                           Pressure (atm)  =  5.89
                  Electrical balance (eq)  =  -3.660e-11
 Percent error, 100*(Cat-|An|)/(Cat+|An|)  =  -0.00
                               Iterations  =  21
                                  Total H  = 1.110302e+02
                                  Total O  = 5.598591e+01

----------------------------Distribution of species----------------------------

                                               Log       Log       Log    mole V
   Species          Molality    Activity  Molality  Activity     Gamma   cm³/mol

   H+              3.531e-06   3.010e-06    -5.452    -5.521    -0.069      0.00
   OH-             4.156e-09   3.363e-09    -8.381    -8.473    -0.092     -3.85
   H2O             5.551e+01   9.959e-01     1.744    -0.002     0.000     18.07
C(-4)         3.109e-26
   CH4             3.109e-26   3.146e-26   -25.507   -25.502     0.005     35.46
C(4)          2.268e-01
   CO2             1.912e-01   1.927e-01    -0.719    -0.715     0.003     34.79
   HCO3-           3.445e-02   2.851e-02    -1.463    -1.545    -0.082     25.08
   (CO2)2          5.990e-04   6.037e-04    -3.223    -3.219     0.003     68.74
   CaCO3           5.979e-06   6.051e-06    -5.223    -5.218     0.005    -14.56
   CO3-2           9.560e-07   4.467e-07    -6.020    -6.350    -0.330     -3.68
   CaHCO3+         2.425e-08   2.017e-08    -7.615    -7.695    -0.080      9.81
Ca            1.723e-02
   Ca+2            1.722e-02   8.074e-03    -1.764    -2.093    -0.329    -17.58
   CaCO3           5.979e-06   6.051e-06    -5.223    -5.218     0.005    -14.56
   CaHCO3+         2.425e-08   2.017e-08    -7.615    -7.695    -0.080      9.81
   CaOH+           5.411e-10   4.433e-10    -9.267    -9.353    -0.087     (0)  
H(0)          7.077e-16
   H2              3.538e-16   3.583e-16   -15.451   -15.446     0.005     14.99
O(0)          0.000e+00
   O2              0.000e+00   0.000e+00   -61.482   -61.477     0.005     30.39

------------------------------Saturation indices-------------------------------

  Phase               SI** log IAP   log K(298 K,   6 atm)

  Aragonite        -0.11     -8.44   -8.33  CaCO3
  Calcite           0.00     -8.44   -8.44  CaCO3
  CH4(g)          -22.70    -25.50   -2.80  CH4
  CO2(g)            0.76     -0.72   -1.47  CO2	 Pressure   5.9 atm, phi 0.968
  H2(g)           -12.35    -15.45   -3.10  H2
  H2O(g)           -1.50     -0.00    1.50  H2O
  O2(g)           -58.58    -61.48   -2.89  O2

**For a gas, SI = log10(fugacity). Fugacity = pressure * phi / 1 atm.
  For ideal gases, phi = 1.

------------------
End of simulation.
------------------

------------------------------------
Reading input data for simulation 3.
------------------------------------

