WARNING: Database file from DATABASE keyword is used; command line argument ignored.
   Input file: fixed_volume_gas
  Output file: fixed_volume_gas.out
Database file: ../database/phreeqc.dat

------------------
Reading data base.
------------------

	SOLUTION_MASTER_SPECIES
	SOLUTION_SPECIES
	PHASES
	GAS_BINARY_PARAMETERS
	EXCHANGE_MASTER_SPECIES
	EXCHANGE_SPECIES
	SURFACE_MASTER_SPECIES
	SURFACE_SPECIES
	MEAN_GAMMAS
	RATES
	END
------------------------------------
Reading input data for simulation 1.
------------------------------------

	DATABASE ../database/phreeqc.dat
	SELECTED_OUTPUT 101
	    file                 fixed_volume_gas_101.sel
	USER_PUNCH 101
	    headings Mu SC
	    start
	10 PUNCH STR_F$(MU, 20, 12)
	20 PUNCH STR_F$(SC, 20, 10)
	    end
	SOLUTION 1
	EQUILIBRIUM_PHASES 1
		CO2(g)	-1.5
	SAVE solution 1
	END
-------------------------------------------
Beginning of initial solution calculations.
-------------------------------------------

Initial solution 1.	

-----------------------------Solution composition------------------------------

	Elements           Molality       Moles

	Pure water     

----------------------------Description of solution----------------------------

                                       pH  =   7.000    
                                       pe  =   4.000    
      Specific Conductance (µS/cm,  25°C)  = 0
                          Density (g/cm³)  =   0.99704
                               Volume (L)  =   1.00297
                        Viscosity (mPa s)  =   0.89002
                        Activity of water  =   1.000
                 Ionic strength (mol/kgw)  =   1.007e-07
                       Mass of water (kg)  =   1.000e+00
                 Total alkalinity (eq/kg)  =   1.217e-09
                         Temperature (°C)  =  25.00
                  Electrical balance (eq)  =  -1.217e-09
 Percent error, 100*(Cat-|An|)/(Cat+|An|)  =  -0.60
                               Iterations  =   0
                                  Total H  = 1.110124e+02
                                  Total O  = 5.550622e+01

----------------------------Distribution of species----------------------------

                                               Log       Log       Log    mole V
   Species          Molality    Activity  Molality  Activity     Gamma   cm³/mol

   OH-             1.013e-07   1.012e-07    -6.995    -6.995    -0.000     -4.14
   H+              1.001e-07   1.000e-07    -7.000    -7.000    -0.000      0.00
   H2O             5.551e+01   1.000e+00     1.744     0.000     0.000     18.07
H(0)          1.416e-25
   H2              7.079e-26   7.079e-26   -25.150   -25.150     0.000     14.99
O(0)          0.000e+00
   O2              0.000e+00   0.000e+00   -42.063   -42.063     0.000     30.40

------------------------------Saturation indices-------------------------------

  Phase               SI** log IAP   log K(298 K,   1 atm)

  H2(g)           -22.05    -25.15   -3.10  H2
  H2O(g)           -1.50      0.00    1.50  H2O
  O2(g)           -39.17    -42.06   -2.89  O2

**For a gas, SI = log10(fugacity). Fugacity = pressure * phi / 1 atm.
  For ideal gases, phi = 1.

-----------------------------------------
Beginning of batch-reaction calculations.
-----------------------------------------

Reaction step 1.

Using solution 1.	
Using pure phase assemblage 1.	

-------------------------------Phase assemblage--------------------------------

                                                      Moles in assemblage
Phase               SI  log IAP  log K(T, P)   Initial       Final       Delta

CO2(g)           -1.50    -2.97     -1.47    1.000e+01   9.999e+00  -1.098e-03

-----------------------------Solution composition------------------------------

	Elements           Molality       Moles

	C                 1.098e-03   1.098e-03

----------------------------Description of solution----------------------------

                                       pH  =   4.660      Charge balance
                                       pe  =   1.315      Adjusted to redox equilibrium
      Specific Conductance (µS/cm,  25°C)  = 8
                          Density (g/cm³)  =   0.99705
                               Volume (L)  =   1.00300
                        Viscosity (mPa s)  =   0.89011
                        Activity of water  =   1.000
                 Ionic strength (mol/kgw)  =   2.199e-05
                       Mass of water (kg)  =   1.000e+00
                 Total alkalinity (eq/kg)  =   1.217e-09
                       Total CO2 (mol/kg)  =   1.098e-03
                         Temperature (°C)  =  25.00
                  Electrical balance (eq)  =  -1.217e-09
 Percent error, 100*(Cat-|An|)/(Cat+|An|)  =  -0.00
                               Iterations  =  13
                                  Total H  = 1.110124e+02
                                  Total O  = 5.550841e+01

----------------------------Distribution of species----------------------------

                                               Log       Log       Log    mole V
   Species          Molality    Activity  Molality  Activity     Gamma   cm³/mol

   H+              2.199e-05   2.187e-05    -4.658    -4.660    -0.002      0.00
   OH-             4.652e-10   4.627e-10    -9.332    -9.335    -0.002     -4.13
   H2O             5.551e+01   1.000e+00     1.744    -0.000     0.000     18.07
C(-4)         4.161e-27
   CH4             4.161e-27   4.161e-27   -26.381   -26.381     0.000     35.46
C(4)          1.098e-03
   CO2             1.076e-03   1.076e-03    -2.968    -2.968     0.000     34.79
   HCO3-           2.199e-05   2.187e-05    -4.658    -4.660    -0.002     24.52
   (CO2)2          1.882e-08   1.882e-08    -7.725    -7.725     0.000     68.75
   CO3-2           4.793e-11   4.690e-11   -10.319   -10.329    -0.009     -4.79
H(0)          1.586e-15
   H2              7.930e-16   7.930e-16   -15.101   -15.101     0.000     14.99
O(0)          0.000e+00
   O2              0.000e+00   0.000e+00   -62.161   -62.161     0.000     30.40

------------------------------Saturation indices-------------------------------

  Phase               SI** log IAP   log K(298 K,   1 atm)

  CH4(g)          -23.58    -26.38   -2.80  CH4
  CO2(g)           -1.50     -2.97   -1.47  CO2	 Pressure   0.0 atm, phi 1.000
  H2(g)           -12.00    -15.10   -3.10  H2
  H2O(g)           -1.50     -0.00    1.50  H2O
  O2(g)           -59.27    -62.16   -2.89  O2

**For a gas, SI = log10(fugacity). Fugacity = pressure * phi / 1 atm.
  For ideal gases, phi = 1.

------------------
End of simulation.
------------------

------------------------------------
Reading input data for simulation 2.
------------------------------------

	GAS_PHASE 1
		equilibrium	1
		fixed_volume
		volume 	1
		CO2(g)	0.0
		N2(g)	0.0
	END
--------------------------------------------------------
Beginning of initial gas_phase-composition calculations.
--------------------------------------------------------

Gas_Phase 1.	

-----------------------------------Gas phase-----------------------------------

Total pressure:  0.03      atmospheres 
    Gas volume:   1.00e+00 liters
  Molar volume:   7.74e+02 liters/mole

                                                        Moles in gas
                                            ----------------------------------
Component                log P           P     Initial       Final       Delta

CO2(g)                   -1.50   3.162e-02   1.292e-03   1.292e-03   0.000e+00
N2(g)                   -99.99   0.000e+00   0.000e+00   0.000e+00   0.000e+00


While initializing gas phase composition by equilibrating:
     Found definitions of gas critical temperature and pressure.
     Going to use Peng-Robinson in subsequent calculations.
------------------
End of simulation.
------------------

------------------------------------
Reading input data for simulation 3.
------------------------------------

	GAS_PHASE 2
		fixed_volume
		volume 	1
		CO2(g)	0.0
		N2(g)	0.0
	END
------------------
End of simulation.
------------------

------------------------------------
Reading input data for simulation 4.
------------------------------------

	use solution 1
	use gas_phase 1
	equilibrium_phases 2
		Calcite
		Dolomite
	end
-----------------------------------------
Beginning of batch-reaction calculations.
-----------------------------------------

Reaction step 1.

WARNING: Element N is contained in gas N2(g) (which has 0.0 mass),
but is not in solution or other phases.
Using solution 1.	Solution after simulation 1.
Using pure phase assemblage 2.	
Using gas phase 1.	Gas phase after simulation 2.

-----------------------------------Gas phase-----------------------------------

Total pressure:  0.01      atmospheres          (Peng-Robinson calculation)
    Gas volume:   1.00e+00 liters
  Molar volume:   3.15e+03 liters/mole
   P * Vm / RT:  0.99996  (Compressibility Factor Z) 

                                                        Moles in gas
                                            ----------------------------------
Component         log P           P    phi     Initial       Final       Delta

CO2(g)            -2.11   7.752e-03  1.000   1.292e-03   3.169e-04  -9.754e-04
N2(g)            -99.99   0.000e+00  1.000   0.000e+00   0.000e+00   0.000e+00

-------------------------------Phase assemblage--------------------------------

                                                      Moles in assemblage
Phase               SI  log IAP  log K(T, P)   Initial       Final       Delta

Calcite           0.00    -8.45     -8.45    1.000e+01   1.000e+01  -3.676e-04
Dolomite          0.00   -17.08    -17.08    1.000e+01   9.999e+00  -7.283e-04

-----------------------------Solution composition------------------------------

	Elements           Molality       Moles

	C                 3.898e-03   3.898e-03
	Ca                1.096e-03   1.096e-03
	Mg                7.284e-04   7.283e-04

----------------------------Description of solution----------------------------

                                       pH  =   7.454      Charge balance
                                       pe  =  10.277      Adjusted to redox equilibrium
      Specific Conductance (µS/cm,  25°C)  = 333
                          Density (g/cm³)  =   0.99723
                               Volume (L)  =   1.00304
                        Viscosity (mPa s)  =   0.89230
                        Activity of water  =   1.000
                 Ionic strength (mol/kgw)  =   5.411e-03
                       Mass of water (kg)  =   1.000e+00
                 Total alkalinity (eq/kg)  =   3.649e-03
                       Total CO2 (mol/kg)  =   3.898e-03
                         Temperature (°C)  =  25.00
                           Pressure (atm)  =  0.01
                  Electrical balance (eq)  =  -1.216e-09
 Percent error, 100*(Cat-|An|)/(Cat+|An|)  =  -0.00
                               Iterations  =  24
                                  Total H  = 1.110124e+02
                                  Total O  = 5.551584e+01

----------------------------Distribution of species----------------------------

                                               Log       Log       Log    mole V
   Species          Molality    Activity  Molality  Activity     Gamma   cm³/mol

   OH-             3.114e-07   2.876e-07    -6.507    -6.541    -0.035     -4.07
   H+              3.778e-08   3.519e-08    -7.423    -7.454    -0.031      0.00
   H2O             5.551e+01   9.999e-01     1.744    -0.000     0.000     18.07
C(-4)         0.000e+00
   CH4             0.000e+00   0.000e+00  -121.030  -121.029     0.001     35.45
C(4)          3.898e-03
   HCO3-           3.598e-03   3.334e-03    -2.444    -2.477    -0.033     24.64
   CO2             2.636e-04   2.638e-04    -3.579    -3.579     0.000     34.79
   MgHCO3+         2.196e-05   2.030e-05    -4.658    -4.693    -0.034      5.51
   CO3-2           6.031e-06   4.443e-06    -5.220    -5.352    -0.133     -4.49
   CaCO3           5.981e-06   5.989e-06    -5.223    -5.223     0.001    -14.61
   MgCO3           2.203e-06   2.206e-06    -5.657    -5.656     0.001    -17.10
   (CO2)2          1.130e-09   1.131e-09    -8.947    -8.946     0.000     68.75
   CaHCO3+         2.529e-10   2.345e-10    -9.597    -9.630    -0.033      9.70
Ca            1.096e-03
   Ca+2            1.090e-03   8.025e-04    -2.963    -3.096    -0.133    -18.01
   CaCO3           5.981e-06   5.989e-06    -5.223    -5.223     0.001    -14.61
   CaOH+           4.093e-09   3.784e-09    -8.388    -8.422    -0.034     (0)  
   CaHCO3+         2.529e-10   2.345e-10    -9.597    -9.630    -0.033      9.70
H(0)          4.901e-39
   H2              2.450e-39   2.454e-39   -38.611   -38.610     0.001     14.99
Mg            7.284e-04
   Mg+2            7.041e-04   5.203e-04    -3.152    -3.284    -0.131    -21.70
   MgHCO3+         2.196e-05   2.030e-05    -4.658    -4.693    -0.034      5.51
   MgCO3           2.203e-06   2.206e-06    -5.657    -5.656     0.001    -17.10
   MgOH+           5.784e-08   5.368e-08    -7.238    -7.270    -0.032     (0)  
O(0)          1.440e-15
   O2              7.198e-16   7.207e-16   -15.143   -15.142     0.001     30.40

------------------------------Saturation indices-------------------------------

  Phase               SI** log IAP   log K(298 K,   0 atm)

  Aragonite        -0.11     -8.45   -8.34  CaCO3
  Calcite           0.00     -8.45   -8.45  CaCO3
  CH4(g)         -118.23   -121.03   -2.80  CH4
  CO2(g)           -2.11     -3.58   -1.47  CO2	 Pressure   0.0 atm, phi 1.000
  Dolomite          0.00    -17.08  -17.08  CaMg(CO3)2
  H2(g)           -35.51    -38.61   -3.10  H2
  H2O(g)           -1.50     -0.00    1.50  H2O
  O2(g)           -12.25    -15.14   -2.89  O2

**For a gas, SI = log10(fugacity). Fugacity = pressure * phi / 1 atm.
  For ideal gases, phi = 1.

------------------
End of simulation.
------------------

------------------------------------
Reading input data for simulation 5.
------------------------------------

	use solution 1
	use gas_phase 2
	equilibrium_phases 2
		Calcite
		Dolomite
	end
-----------------------------------------
Beginning of batch-reaction calculations.
-----------------------------------------

Reaction step 1.

WARNING: Element N is contained in gas N2(g) (which has 0.0 mass),
but is not in solution or other phases.
Using solution 1.	Solution after simulation 1.
Using pure phase assemblage 2.	
Using gas phase 2.	

-----------------------------------Gas phase-----------------------------------

Total pressure:  0.00      atmospheres          (Peng-Robinson calculation)
    Gas volume:   1.00e+00 liters
  Molar volume:   9.91e+03 liters/mole
   P * Vm / RT:  0.99999  (Compressibility Factor Z) 

                                                        Moles in gas
                                            ----------------------------------
Component         log P           P    phi     Initial       Final       Delta

CO2(g)            -2.84   1.438e-03  1.000   0.000e+00   5.876e-05   5.876e-05
N2(g)            -99.99   0.000e+00  1.000   0.000e+00   0.000e+00   0.000e+00

-------------------------------Phase assemblage--------------------------------

                                                      Moles in assemblage
Phase               SI  log IAP  log K(T, P)   Initial       Final       Delta

Calcite           0.00    -8.45     -8.45    1.000e+01   1.000e+01  -2.095e-04
Dolomite          0.00   -17.08    -17.08    1.000e+01   1.000e+01  -3.997e-04

-----------------------------Solution composition------------------------------

	Elements           Molality       Moles

	C                 2.048e-03   2.048e-03
	Ca                6.092e-04   6.092e-04
	Mg                3.997e-04   3.997e-04

----------------------------Description of solution----------------------------

                                       pH  =   7.932      Charge balance
                                       pe  =  -1.814      Adjusted to redox equilibrium
      Specific Conductance (µS/cm,  25°C)  = 188
                          Density (g/cm³)  =   0.99713
                               Volume (L)  =   1.00302
                        Viscosity (mPa s)  =   0.89149
                        Activity of water  =   1.000
                 Ionic strength (mol/kgw)  =   2.997e-03
                       Mass of water (kg)  =   1.000e+00
                 Total alkalinity (eq/kg)  =   2.018e-03
                       Total CO2 (mol/kg)  =   2.048e-03
                         Temperature (°C)  =  25.00
                           Pressure (atm)  =  0.00
                  Electrical balance (eq)  =  -1.215e-09
 Percent error, 100*(Cat-|An|)/(Cat+|An|)  =  -0.00
                               Iterations  =  13
                                  Total H  = 1.110124e+02
                                  Total O  = 5.551132e+01

----------------------------Distribution of species----------------------------

                                               Log       Log       Log    mole V
   Species          Molality    Activity  Molality  Activity     Gamma   cm³/mol

   OH-             9.203e-07   8.663e-07    -6.036    -6.062    -0.026     -4.09
   H+              1.235e-08   1.168e-08    -7.908    -7.932    -0.024      0.00
   H2O             5.551e+01   9.999e-01     1.744    -0.000     0.000     18.07
C(-4)         1.365e-29
   CH4             1.365e-29   1.366e-29   -28.865   -28.865     0.000     35.45
C(4)          2.048e-03
   HCO3-           1.974e-03   1.862e-03    -2.705    -2.730    -0.025     24.60
   CO2             4.889e-05   4.892e-05    -4.311    -4.311     0.000     34.79
   CO3-2           9.449e-06   7.475e-06    -5.025    -5.126    -0.102     -4.58
   MgHCO3+         7.155e-06   6.738e-06    -5.145    -5.171    -0.026      5.49
   CaCO3           5.985e-06   5.989e-06    -5.223    -5.223     0.000    -14.61
   MgCO3           2.204e-06   2.206e-06    -5.657    -5.656     0.000    -17.10
   CaHCO3+         8.252e-11   7.787e-11   -10.083   -10.109    -0.025      9.69
   (CO2)2          3.888e-11   3.890e-11   -10.410   -10.410     0.000     68.75
Ca            6.092e-04
   Ca+2            6.032e-04   4.770e-04    -3.220    -3.322    -0.102    -18.07
   CaCO3           5.985e-06   5.989e-06    -5.223    -5.223     0.000    -14.61
   CaOH+           7.193e-09   6.775e-09    -8.143    -8.169    -0.026     (0)  
   CaHCO3+         8.252e-11   7.787e-11   -10.083   -10.109    -0.025      9.69
H(0)          8.216e-16
   H2              4.108e-16   4.111e-16   -15.386   -15.386     0.000     14.99
Mg            3.997e-04
   Mg+2            3.903e-04   3.093e-04    -3.409    -3.510    -0.101    -21.76
   MgHCO3+         7.155e-06   6.738e-06    -5.145    -5.171    -0.026      5.49
   MgCO3           2.204e-06   2.206e-06    -5.657    -5.656     0.000    -17.10
   MgOH+           1.018e-07   9.610e-08    -6.992    -7.017    -0.025     (0)  
O(0)          0.000e+00
   O2              0.000e+00   0.000e+00   -61.591   -61.590     0.000     30.40

------------------------------Saturation indices-------------------------------

  Phase               SI** log IAP   log K(298 K,   0 atm)

  Aragonite        -0.11     -8.45   -8.34  CaCO3
  Calcite           0.00     -8.45   -8.45  CaCO3
  CH4(g)          -26.06    -28.86   -2.80  CH4
  CO2(g)           -2.84     -4.31   -1.47  CO2	 Pressure   0.0 atm, phi 1.000
  Dolomite          0.00    -17.08  -17.08  CaMg(CO3)2
  H2(g)           -12.29    -15.39   -3.10  H2
  H2O(g)           -1.50     -0.00    1.50  H2O
  O2(g)           -58.70    -61.59   -2.89  O2

**For a gas, SI = log10(fugacity). Fugacity = pressure * phi / 1 atm.
  For ideal gases, phi = 1.

------------------
End of simulation.
------------------

------------------------------------
Reading input data for simulation 6.
------------------------------------

