WARNING: Database file from DATABASE keyword is used; command line argument ignored.
   Input file: fluorite
  Output file: fluorite.out
Database file: ../database/phreeqc.dat

------------------
Reading data base.
------------------

	SOLUTION_MASTER_SPECIES
	SOLUTION_SPECIES
	PHASES
	GAS_BINARY_PARAMETERS
	EXCHANGE_MASTER_SPECIES
	EXCHANGE_SPECIES
	SURFACE_MASTER_SPECIES
	SURFACE_SPECIES
	MEAN_GAMMAS
	RATES
	END
------------------------------------
Reading input data for simulation 1.
------------------------------------

	DATABASE ../database/phreeqc.dat
	SELECTED_OUTPUT 101
	    file                 fluorite_101.sel
	USER_PUNCH 101
	    headings Mu SC
	    start
	10 PUNCH STR_F$(MU, 20, 12)
	20 PUNCH STR_F$(SC, 20, 10)
	    end
	solution 1
	units ppm
	Ca 10
	 F 5.5
	end
-------------------------------------------
Beginning of initial solution calculations.
-------------------------------------------

Initial solution 1.	

-----------------------------Solution composition------------------------------

	Elements           Molality       Moles

	Ca                2.495e-04   2.495e-04
	F                 2.895e-04   2.895e-04

----------------------------Description of solution----------------------------

                                       pH  =   7.000    
                                       pe  =   4.000    
      Specific Conductance (µS/cm,  25°C)  = 43
                          Density (g/cm³)  =   0.99706
                               Volume (L)  =   1.00296
                        Viscosity (mPa s)  =   0.89052
                        Activity of water  =   1.000
                 Ionic strength (mol/kgw)  =   6.438e-04
                       Mass of water (kg)  =   1.000e+00
                 Total alkalinity (eq/kg)  =  -4.046e-08
                         Temperature (°C)  =  25.00
                  Electrical balance (eq)  =   2.095e-04
 Percent error, 100*(Cat-|An|)/(Cat+|An|)  =  26.57
                               Iterations  =   3
                                  Total H  = 1.110124e+02
                                  Total O  = 5.550622e+01

----------------------------Distribution of species----------------------------

                                               Log       Log       Log    mole V
   Species          Molality    Activity  Molality  Activity     Gamma   cm³/mol

   OH-             1.042e-07   1.012e-07    -6.982    -6.995    -0.013     -4.11
   H+              1.028e-07   1.000e-07    -6.988    -7.000    -0.012      0.00
   H2O             5.551e+01   1.000e+00     1.744    -0.000     0.000     18.07
Ca            2.495e-04
   Ca+2            2.495e-04   2.226e-04    -3.603    -3.653    -0.050    -18.16
   CaOH+           3.802e-10   3.694e-10    -9.420    -9.433    -0.013     (0)  
F             2.895e-04
   F-              2.895e-04   2.812e-04    -3.538    -3.551    -0.013     -1.59
   HF              4.217e-08   4.217e-08    -7.375    -7.375     0.000     12.50
   HF2-            4.683e-11   4.550e-11   -10.329   -10.342    -0.013     22.05
H(0)          1.416e-25
   H2              7.078e-26   7.079e-26   -25.150   -25.150     0.000     14.99
O(0)          0.000e+00
   O2              0.000e+00   0.000e+00   -42.063   -42.063     0.000     30.40

------------------------------Saturation indices-------------------------------

  Phase               SI** log IAP   log K(298 K,   1 atm)

  Fluorite         -0.14    -10.75  -10.61  CaF2
  H2(g)           -22.05    -25.15   -3.10  H2
  H2O(g)           -1.50     -0.00    1.50  H2O
  O2(g)           -39.17    -42.06   -2.89  O2

**For a gas, SI = log10(fugacity). Fugacity = pressure * phi / 1 atm.
  For ideal gases, phi = 1.

------------------
End of simulation.
------------------

------------------------------------
Reading input data for simulation 2.
------------------------------------

	use solution 1
	EQUILIBRIUM_PHASES 1
	Fluorite 0 Gypsum 10 diss
	end
-----------------------------------------
Beginning of batch-reaction calculations.
-----------------------------------------

Reaction step 1.

Using solution 1.	
Using pure phase assemblage 1.	

-------------------------------Phase assemblage--------------------------------

                                                      Moles in assemblage
Phase               SI  log IAP  log K(T, P)   Initial       Final       Delta

Fluorite          0.00   -10.61    -10.61
	 CaSO4:2H2O         is reactant       1.000e+01   1.000e+01  -1.176e-04

-----------------------------Solution composition------------------------------

	Elements           Molality       Moles

	Ca                3.671e-04   3.671e-04
	F                 2.895e-04   2.895e-04
	S                 1.176e-04   1.176e-04

----------------------------Description of solution----------------------------

                                       pH  =   7.001      Charge balance
                                       pe  =  10.866      Adjusted to redox equilibrium
      Specific Conductance (µS/cm,  25°C)  = 75
                          Density (g/cm³)  =   0.99708
                               Volume (L)  =   1.00296
                        Viscosity (mPa s)  =   0.89070
                        Activity of water  =   1.000
                 Ionic strength (mol/kgw)  =   1.097e-03
                       Mass of water (kg)  =   1.000e+00
                 Total alkalinity (eq/kg)  =  -4.045e-08
                         Temperature (°C)  =  25.00
                  Electrical balance (eq)  =   2.095e-04
 Percent error, 100*(Cat-|An|)/(Cat+|An|)  =  16.87
                               Iterations  =  14
                                  Total H  = 1.110129e+02
                                  Total O  = 5.550692e+01

----------------------------Distribution of species----------------------------

                                               Log       Log       Log    mole V
   Species          Molality    Activity  Molality  Activity     Gamma   cm³/mol

   OH-             1.052e-07   1.014e-07    -6.978    -6.994    -0.016     -4.11
   H+              1.035e-07   9.985e-08    -6.985    -7.001    -0.015      0.00
   H2O             5.551e+01   1.000e+00     1.744    -0.000     0.000     18.07
Ca            3.671e-04
   Ca+2            3.628e-04   3.132e-04    -3.440    -3.504    -0.064    -18.14
   CaSO4           4.269e-06   4.270e-06    -5.370    -5.370     0.000      7.22
   CaOH+           5.402e-10   5.205e-10    -9.267    -9.284    -0.016     (0)  
   CaHSO4+         3.708e-12   3.573e-12   -11.431   -11.447    -0.016     (0)  
F             2.895e-04
   F-              2.895e-04   2.788e-04    -3.538    -3.555    -0.016     -1.59
   HF              4.174e-08   4.175e-08    -7.379    -7.379     0.000     12.50
   HF2-            4.636e-11   4.467e-11   -10.334   -10.350    -0.016     22.06
H(0)          2.621e-39
   H2              1.310e-39   1.311e-39   -38.883   -38.882     0.000     14.99
O(0)          5.050e-15
   O2              2.525e-15   2.526e-15   -14.598   -14.598     0.000     30.40
S(-2)         0.000e+00
   HS-             0.000e+00   0.000e+00  -120.274  -120.290    -0.016     20.60
   H2S             0.000e+00   0.000e+00  -120.349  -120.349     0.000     36.27
   S-2             0.000e+00   0.000e+00  -126.144  -126.208    -0.064     (0)  
   (H2S)2          0.000e+00   0.000e+00  -241.977  -241.977     0.000     30.09
S(6)          1.176e-04
   SO4-2           1.133e-04   9.775e-05    -3.946    -4.010    -0.064     14.54
   CaSO4           4.269e-06   4.270e-06    -5.370    -5.370     0.000      7.22
   HSO4-           9.850e-10   9.489e-10    -9.007    -9.023    -0.016     40.28
   CaHSO4+         3.708e-12   3.573e-12   -11.431   -11.447    -0.016     (0)  

------------------------------Saturation indices-------------------------------

  Phase               SI** log IAP   log K(298 K,   1 atm)

  Anhydrite        -3.20     -7.51   -4.31  CaSO4
  Fluorite          0.00    -10.61  -10.61  CaF2
  Gypsum           -2.97     -7.51   -4.55  CaSO4:2H2O
  H2(g)           -35.78    -38.88   -3.10  H2
  H2O(g)           -1.50     -0.00    1.50  H2O
  H2S(g)         -119.35   -127.29   -7.94  H2S
  O2(g)           -11.71    -14.60   -2.89  O2
  Sulfur          -89.50    -84.62    4.88  S

**For a gas, SI = log10(fugacity). Fugacity = pressure * phi / 1 atm.
  For ideal gases, phi = 1.

------------------
End of simulation.
------------------

------------------------------------
Reading input data for simulation 3.
------------------------------------

