WARNING: Database file from DATABASE keyword is used; command line argument ignored.
   Input file: gas
  Output file: gas.out
Database file: ../database/phreeqc.dat

------------------
Reading data base.
------------------

	SOLUTION_MASTER_SPECIES
	SOLUTION_SPECIES
	PHASES
	GAS_BINARY_PARAMETERS
	EXCHANGE_MASTER_SPECIES
	EXCHANGE_SPECIES
	SURFACE_MASTER_SPECIES
	SURFACE_SPECIES
	MEAN_GAMMAS
	RATES
	END
------------------------------------
Reading input data for simulation 1.
------------------------------------

	DATABASE ../database/phreeqc.dat
	SELECTED_OUTPUT 101
	    file                 gas_101.sel
	USER_PUNCH 101
	    headings Mu SC
	    start
	10 PUNCH STR_F$(MU, 20, 12)
	20 PUNCH STR_F$(SC, 20, 10)
	    end
	knobs
		logfile
	PRINT
		status false
	SELECTED_OUTPUT
		file 	gas.flat
		totals
			C C(4) C(-4) N N(5) N(3) N(0) N(-3)
		si	
			CO2(g) CH4(g) O2(g) N2(g)
		gases	CO2(g) CH4(g) O2(g) N2(g)
	SOLUTION 1
		units mmol/L
		pH	4.0
		temp 	25.
		C(4)	1.0	CO2(g)	-3.5
		N(5)	3.0
	REACTION 1
		CH2O	1.0
		0.0 1.0 2.0 3.0 4.0 10.0 100. 300. mmol
	PURE_PHASES 1
		Calcite
		Dolomite
	GAS_PHASE 1
		pressure	 	1.0
		volume		1.0
		temp		25.0
		CH4(g)          0.000001
		CO2(g)		0.000316
		O2(g)		0.2
		N2(g)		0.78
	END
-------------------------------------------
Beginning of initial solution calculations.
-------------------------------------------

Initial solution 1.	

-----------------------------Solution composition------------------------------

	Elements           Molality       Moles

	C(4)              1.081e-05   1.081e-05  Equilibrium with CO2(g)
	N(5)              3.000e-03   3.000e-03

----------------------------Description of solution----------------------------

                                       pH  =   4.000    
                                       pe  =   4.000    
      Specific Conductance (µS/cm,  25°C)  = 243
                          Density (g/cm³)  =   0.99714
                               Volume (L)  =   1.00305
                        Viscosity (mPa s)  =   0.88997
                        Activity of water  =   1.000
                 Ionic strength (mol/kgw)  =   1.552e-03
                       Mass of water (kg)  =   1.000e+00
                 Total alkalinity (eq/kg)  =  -1.042e-04
                       Total CO2 (mol/kg)  =   1.081e-05
                         Temperature (°C)  =  25.00
                  Electrical balance (eq)  =  -2.896e-03
 Percent error, 100*(Cat-|An|)/(Cat+|An|)  = -93.29
                               Iterations  =   3
                                  Total H  = 1.110125e+02
                                  Total O  = 5.551524e+01

----------------------------Distribution of species----------------------------

                                               Log       Log       Log    mole V
   Species          Molality    Activity  Molality  Activity     Gamma   cm³/mol

   H+              1.042e-04   1.000e-04    -3.982    -4.000    -0.018      0.00
   OH-             1.058e-10   1.012e-10    -9.976    -9.995    -0.019     -4.10
   H2O             5.551e+01   9.999e-01     1.744    -0.000     0.000     18.07
C(4)          1.081e-05
   CO2             1.076e-05   1.076e-05    -4.968    -4.968     0.000     34.79
   HCO3-           4.997e-08   4.786e-08    -7.301    -7.320    -0.019     24.57
   (CO2)2          1.882e-12   1.882e-12   -11.725   -11.725     0.000     68.75
   CO3-2           2.668e-14   2.244e-14   -13.574   -13.649    -0.075     -4.64
H(0)          1.415e-19
   H2              7.077e-20   7.079e-20   -19.150   -19.150     0.000     14.99
N(5)          3.000e-03
   NO3-            3.000e-03   2.870e-03    -2.523    -2.542    -0.019     29.50
O(0)          0.000e+00
   O2              0.000e+00   0.000e+00   -54.063   -54.063     0.000     30.40

------------------------------Saturation indices-------------------------------

  Phase               SI** log IAP   log K(298 K,   1 atm)

  CO2(g)           -3.50     -4.97   -1.47  CO2	 Pressure   0.0 atm, phi 1.000
  H2(g)           -16.05    -19.15   -3.10  H2
  H2O(g)           -1.50     -0.00    1.50  H2O
  O2(g)           -51.17    -54.06   -2.89  O2	 Pressure   0.2 atm, phi 0.999

**For a gas, SI = log10(fugacity). Fugacity = pressure * phi / 1 atm.
  For ideal gases, phi = 1.

-----------------------------------------
Beginning of batch-reaction calculations.
-----------------------------------------

Reaction step 1.

Using solution 1.	
Using pure phase assemblage 1.	
Using gas phase 1.	
Using reaction 1.	

Reaction 1.	

	  0.000e+00 moles of the following reaction have been added:

	                 Relative
	Reactant            moles

	CH2O                 1.00000

	                 Relative
	Element             moles
	C                    1.00000
	H                    2.00000
	O                    1.00000

-----------------------------------Gas phase-----------------------------------

Total pressure:  1.00      atmospheres          (Peng-Robinson calculation)
    Gas volume:   6.99e-01 liters
  Molar volume:   2.45e+01 liters/mole
   P * Vm / RT:  0.99948  (Compressibility Factor Z) 

                                                        Moles in gas
                                            ----------------------------------
Component         log P           P    phi     Initial       Final       Delta

CH4(g)          -129.57  2.713e-130  0.998   4.089e-08   0.000e+00  -4.089e-08
CO2(g)            -1.67   2.116e-02  0.996   1.292e-05   6.047e-04   5.918e-04
N2(g)             -0.01   9.788e-01  1.000   3.190e-02   2.798e-02  -3.922e-03
O2(g)             -6.36   4.342e-07  0.999   8.179e-03   1.241e-08  -8.179e-03

-------------------------------Phase assemblage--------------------------------

                                                      Moles in assemblage
Phase               SI  log IAP  log K(T, P)   Initial       Final       Delta

Calcite           0.00    -8.45     -8.45    1.000e+01   9.999e+00  -1.100e-03
Dolomite          0.00   -17.08    -17.08    1.000e+01   9.998e+00  -2.131e-03

-----------------------------Solution composition------------------------------

	Elements           Molality       Moles

	C                 4.781e-03   4.781e-03
	Ca                3.231e-03   3.231e-03
	Mg                2.131e-03   2.131e-03
	N                 1.084e-02   1.084e-02

----------------------------Description of solution----------------------------

                                       pH  =   7.044      Charge balance
                                       pe  =  12.158      Adjusted to redox equilibrium
      Specific Conductance (µS/cm,  25°C)  = 1278
                          Density (g/cm³)  =   0.99779
                               Volume (L)  =   1.00325
                        Viscosity (mPa s)  =   0.89326
                        Activity of water  =   1.000
                 Ionic strength (mol/kgw)  =   1.739e-02
                       Mass of water (kg)  =   1.000e+00
                 Total alkalinity (eq/kg)  =   4.077e-03
                       Total CO2 (mol/kg)  =   4.781e-03
                         Temperature (°C)  =  25.00
                  Electrical balance (eq)  =  -2.896e-03
 Percent error, 100*(Cat-|An|)/(Cat+|An|)  = -11.97
                               Iterations  =  26
                                  Total H  = 1.110125e+02
                                  Total O  = 5.554650e+01

----------------------------Distribution of species----------------------------

                                               Log       Log       Log    mole V
   Species          Molality    Activity  Molality  Activity     Gamma   cm³/mol

   OH-             1.279e-07   1.118e-07    -6.893    -6.951    -0.058     -3.99
   H+              1.011e-07   9.047e-08    -6.995    -7.044    -0.048      0.00
   H2O             5.551e+01   9.997e-01     1.744    -0.000     0.000     18.07
C(-4)         0.000e+00
   CH4             0.000e+00   0.000e+00  -132.371  -132.369     0.002     35.46
C(4)          4.781e-03
   HCO3-           3.995e-03   3.525e-03    -2.398    -2.453    -0.054     24.78
   CO2             7.154e-04   7.173e-04    -3.145    -3.144     0.001     34.79
   MgHCO3+         5.954e-05   5.218e-05    -4.225    -4.283    -0.057      5.55
   CaCO3           5.965e-06   5.989e-06    -5.224    -5.223     0.002    -14.60
   CO3-2           3.019e-06   1.827e-06    -5.520    -5.738    -0.218     -4.20
   MgCO3           2.197e-06   2.206e-06    -5.658    -5.656     0.002    -17.09
   (CO2)2          8.342e-09   8.364e-09    -8.079    -8.078     0.001     68.75
   CaHCO3+         6.818e-10   6.030e-10    -9.166    -9.220    -0.053      9.74
Ca            3.231e-03
   Ca+2            3.225e-03   1.951e-03    -2.491    -2.710    -0.218    -17.84
   CaCO3           5.965e-06   5.989e-06    -5.224    -5.223     0.002    -14.60
   CaOH+           4.077e-09   3.578e-09    -8.390    -8.446    -0.057     (0)  
   CaHCO3+         6.818e-10   6.030e-10    -9.166    -9.220    -0.053      9.74
H(0)          0.000e+00
   H2              0.000e+00   0.000e+00   -41.556   -41.554     0.002     14.99
Mg            2.131e-03
   Mg+2            2.070e-03   1.265e-03    -2.684    -2.898    -0.214    -21.53
   MgHCO3+         5.954e-05   5.218e-05    -4.225    -4.283    -0.057      5.55
   MgCO3           2.197e-06   2.206e-06    -5.658    -5.656     0.002    -17.09
   MgOH+           5.727e-08   5.075e-08    -7.242    -7.295    -0.052     (0)  
N(-3)         0.000e+00
   NH4+            0.000e+00   0.000e+00   -50.644   -50.705    -0.061     17.99
   NH3             0.000e+00   0.000e+00   -52.907   -52.906     0.002     24.42
N(0)          1.300e-03
   N2              6.502e-04   6.528e-04    -3.187    -3.185     0.002     29.29
N(3)          1.399e-12
   NO2-            1.399e-12   1.220e-12   -11.854   -11.914    -0.060     25.06
N(5)          9.544e-03
   NO3-            9.544e-03   8.321e-03    -2.020    -2.080    -0.060     29.59
O(0)          1.107e-09
   O2              5.536e-10   5.558e-10    -9.257    -9.255     0.002     30.40

------------------------------Saturation indices-------------------------------

  Phase               SI** log IAP   log K(298 K,   1 atm)

  Aragonite        -0.11     -8.45   -8.34  CaCO3
  Calcite           0.00     -8.45   -8.45  CaCO3
  CH4(g)         -129.57   -132.37   -2.80  CH4	 Pressure   0.0 atm, phi 0.998
  CO2(g)           -1.68     -3.14   -1.47  CO2	 Pressure   0.0 atm, phi 0.996
  Dolomite          0.00    -17.08  -17.08  CaMg(CO3)2
  H2(g)           -38.45    -41.55   -3.10  H2
  H2O(g)           -1.50     -0.00    1.50  H2O
  N2(g)            -0.01     -3.19   -3.18  N2	 Pressure   1.0 atm, phi 1.000
  NH3(g)          -54.70    -52.91    1.80  NH3
  O2(g)            -6.36     -9.26   -2.89  O2	 Pressure   0.0 atm, phi 0.999

**For a gas, SI = log10(fugacity). Fugacity = pressure * phi / 1 atm.
  For ideal gases, phi = 1.

Reaction step 2.

Using solution 1.	
Using pure phase assemblage 1.	
Using gas phase 1.	
Using reaction 1.	

Reaction 1.	

	  1.000e-03 moles of the following reaction have been added:

	                 Relative
	Reactant            moles

	CH2O                 1.00000

	                 Relative
	Element             moles
	C                    1.00000
	H                    2.00000
	O                    1.00000

-----------------------------------Gas phase-----------------------------------

Total pressure:  1.00      atmospheres          (Peng-Robinson calculation)
    Gas volume:   7.13e-01 liters
  Molar volume:   2.45e+01 liters/mole
   P * Vm / RT:  0.99946  (Compressibility Factor Z) 

                                                        Moles in gas
                                            ----------------------------------
Component         log P           P    phi     Initial       Final       Delta

CH4(g)          -129.48  3.300e-130  0.998   4.089e-08   0.000e+00  -4.089e-08
CO2(g)            -1.58   2.638e-02  0.996   1.292e-05   7.690e-04   7.560e-04
N2(g)             -0.01   9.736e-01  1.000   3.190e-02   2.838e-02  -3.518e-03
O2(g)             -6.36   4.396e-07  0.999   8.179e-03   1.281e-08  -8.179e-03

-------------------------------Phase assemblage--------------------------------

                                                      Moles in assemblage
Phase               SI  log IAP  log K(T, P)   Initial       Final       Delta

Calcite           0.00    -8.45     -8.45    1.000e+01   9.999e+00  -1.061e-03
Dolomite          0.00   -17.08    -17.08    1.000e+01   9.998e+00  -2.080e-03

-----------------------------Solution composition------------------------------

	Elements           Molality       Moles

	C                 5.476e-03   5.476e-03
	Ca                3.141e-03   3.141e-03
	Mg                2.080e-03   2.080e-03
	N                 1.004e-02   1.004e-02

----------------------------Description of solution----------------------------

                                       pH  =   7.001      Charge balance
                                       pe  =  12.203      Adjusted to redox equilibrium
      Specific Conductance (µS/cm,  25°C)  = 1235
                          Density (g/cm³)  =   0.99778
                               Volume (L)  =   1.00326
                        Viscosity (mPa s)  =   0.89333
                        Activity of water  =   1.000
                 Ionic strength (mol/kgw)  =   1.696e-02
                       Mass of water (kg)  =   1.000e+00
                 Total alkalinity (eq/kg)  =   4.596e-03
                       Total CO2 (mol/kg)  =   5.476e-03
                         Temperature (°C)  =  25.00
                  Electrical balance (eq)  =  -2.896e-03
 Percent error, 100*(Cat-|An|)/(Cat+|An|)  = -12.26
                               Iterations  =  23
                                  Total H  = 1.110145e+02
                                  Total O  = 5.554675e+01

----------------------------Distribution of species----------------------------

                                               Log       Log       Log    mole V
   Species          Molality    Activity  Molality  Activity     Gamma   cm³/mol

   OH-             1.157e-07   1.013e-07    -6.937    -6.994    -0.058     -4.00
   H+              1.115e-07   9.986e-08    -6.953    -7.001    -0.048      0.00
   H2O             5.551e+01   9.997e-01     1.744    -0.000     0.000     18.07
C(-4)         0.000e+00
   CH4             0.000e+00   0.000e+00  -132.286  -132.284     0.002     35.46
C(4)          5.476e-03
   HCO3-           4.507e-03   3.982e-03    -2.346    -2.400    -0.054     24.78
   CO2             8.920e-04   8.943e-04    -3.050    -3.049     0.001     34.79
   MgHCO3+         6.563e-05   5.759e-05    -4.183    -4.240    -0.057      5.55
   CaCO3           5.966e-06   5.989e-06    -5.224    -5.223     0.002    -14.60
   CO3-2           3.074e-06   1.870e-06    -5.512    -5.728    -0.216     -4.20
   MgCO3           2.197e-06   2.206e-06    -5.658    -5.656     0.002    -17.09
   (CO2)2          1.297e-08   1.300e-08    -7.887    -7.886     0.001     68.75
   CaHCO3+         7.517e-10   6.655e-10    -9.124    -9.177    -0.053      9.74
Ca            3.141e-03
   Ca+2            3.135e-03   1.906e-03    -2.504    -2.720    -0.216    -17.84
   CaCO3           5.966e-06   5.989e-06    -5.224    -5.223     0.002    -14.60
   CaOH+           3.604e-09   3.167e-09    -8.443    -8.499    -0.056     (0)  
   CaHCO3+         7.517e-10   6.655e-10    -9.124    -9.177    -0.053      9.74
H(0)          0.000e+00
   H2              0.000e+00   0.000e+00   -41.558   -41.557     0.002     14.99
Mg            2.080e-03
   Mg+2            2.012e-03   1.236e-03    -2.696    -2.908    -0.212    -21.53
   MgHCO3+         6.563e-05   5.759e-05    -4.183    -4.240    -0.057      5.55
   MgCO3           2.197e-06   2.206e-06    -5.658    -5.656     0.002    -17.09
   MgOH+           5.064e-08   4.493e-08    -7.296    -7.347    -0.052     (0)  
N(-3)         0.000e+00
   NH4+            0.000e+00   0.000e+00   -50.607   -50.667    -0.060     17.99
   NH3             0.000e+00   0.000e+00   -52.913   -52.911     0.002     24.42
N(0)          1.294e-03
   N2              6.468e-04   6.493e-04    -3.189    -3.188     0.002     29.29
N(3)          1.274e-12
   NO2-            1.274e-12   1.113e-12   -11.895   -11.954    -0.059     25.06
N(5)          8.744e-03
   NO3-            8.744e-03   7.635e-03    -2.058    -2.117    -0.059     29.58
O(0)          1.121e-09
   O2              5.605e-10   5.627e-10    -9.251    -9.250     0.002     30.40

------------------------------Saturation indices-------------------------------

  Phase               SI** log IAP   log K(298 K,   1 atm)

  Aragonite        -0.11     -8.45   -8.34  CaCO3
  Calcite           0.00     -8.45   -8.45  CaCO3
  CH4(g)         -129.48   -132.28   -2.80  CH4	 Pressure   0.0 atm, phi 0.998
  CO2(g)           -1.58     -3.05   -1.47  CO2	 Pressure   0.0 atm, phi 0.996
  Dolomite          0.00    -17.08  -17.08  CaMg(CO3)2
  H2(g)           -38.46    -41.56   -3.10  H2
  H2O(g)           -1.50     -0.00    1.50  H2O
  N2(g)            -0.01     -3.19   -3.18  N2	 Pressure   1.0 atm, phi 1.000
  NH3(g)          -54.71    -52.91    1.80  NH3
  O2(g)            -6.36     -9.25   -2.89  O2	 Pressure   0.0 atm, phi 0.999

**For a gas, SI = log10(fugacity). Fugacity = pressure * phi / 1 atm.
  For ideal gases, phi = 1.

Reaction step 3.

Using solution 1.	
Using pure phase assemblage 1.	
Using gas phase 1.	
Using reaction 1.	

Reaction 1.	

	  2.000e-03 moles of the following reaction have been added:

	                 Relative
	Reactant            moles

	CH2O                 1.00000

	                 Relative
	Element             moles
	C                    1.00000
	H                    2.00000
	O                    1.00000

-----------------------------------Gas phase-----------------------------------

Total pressure:  1.00      atmospheres          (Peng-Robinson calculation)
    Gas volume:   7.27e-01 liters
  Molar volume:   2.45e+01 liters/mole
   P * Vm / RT:  0.99945  (Compressibility Factor Z) 

                                                        Moles in gas
                                            ----------------------------------
Component         log P           P    phi     Initial       Final       Delta

CH4(g)          -129.39  4.045e-130  0.998   4.089e-08   0.000e+00  -4.089e-08
CO2(g)            -1.50   3.169e-02  0.996   1.292e-05   9.420e-04   9.290e-04
N2(g)             -0.01   9.683e-01  1.000   3.190e-02   2.878e-02  -3.115e-03
O2(g)             -6.36   4.351e-07  0.999   8.179e-03   1.293e-08  -8.179e-03

-------------------------------Phase assemblage--------------------------------

                                                      Moles in assemblage
Phase               SI  log IAP  log K(T, P)   Initial       Final       Delta

Calcite           0.00    -8.45     -8.45    1.000e+01   9.999e+00  -1.021e-03
Dolomite          0.00   -17.08    -17.08    1.000e+01   9.998e+00  -2.024e-03

-----------------------------Solution composition------------------------------

	Elements           Molality       Moles

	C                 6.151e-03   6.151e-03
	Ca                3.045e-03   3.045e-03
	Mg                2.024e-03   2.024e-03
	N                 9.230e-03   9.230e-03

----------------------------Description of solution----------------------------

                                       pH  =   6.966      Charge balance
                                       pe  =  12.236      Adjusted to redox equilibrium
      Specific Conductance (µS/cm,  25°C)  = 1190
                          Density (g/cm³)  =   0.99776
                               Volume (L)  =   1.00328
                        Viscosity (mPa s)  =   0.89340
                        Activity of water  =   1.000
                 Ionic strength (mol/kgw)  =   1.649e-02
                       Mass of water (kg)  =   1.000e+00
                 Total alkalinity (eq/kg)  =   5.090e-03
                       Total CO2 (mol/kg)  =   6.151e-03
                         Temperature (°C)  =  25.00
                  Electrical balance (eq)  =  -2.896e-03
 Percent error, 100*(Cat-|An|)/(Cat+|An|)  = -12.59
                               Iterations  =  23
                                  Total H  = 1.110165e+02
                                  Total O  = 5.554695e+01

----------------------------Distribution of species----------------------------

                                               Log       Log       Log    mole V
   Species          Molality    Activity  Molality  Activity     Gamma   cm³/mol

   H+              1.205e-07   1.080e-07    -6.919    -6.966    -0.047      0.00
   OH-             1.068e-07   9.364e-08    -6.971    -7.029    -0.057     -4.00
   H2O             5.551e+01   9.997e-01     1.744    -0.000     0.000     18.07
C(-4)         0.000e+00
   CH4             0.000e+00   0.000e+00  -132.197  -132.196     0.002     35.46
C(4)          6.151e-03
   HCO3-           4.997e-03   4.421e-03    -2.301    -2.355    -0.053     24.77
   CO2             1.072e-03   1.074e-03    -2.970    -2.969     0.001     34.79
   MgHCO3+         7.090e-05   6.232e-05    -4.149    -4.205    -0.056      5.55
   CaCO3           5.966e-06   5.989e-06    -5.224    -5.223     0.002    -14.60
   CO3-2           3.136e-06   1.919e-06    -5.504    -5.717    -0.213     -4.21
   MgCO3           2.197e-06   2.206e-06    -5.658    -5.656     0.002    -17.09
   (CO2)2          1.871e-08   1.876e-08    -7.728    -7.727     0.001     68.75
   CaHCO3+         8.122e-10   7.201e-10    -9.090    -9.143    -0.052      9.74
Ca            3.045e-03
   Ca+2            3.039e-03   1.858e-03    -2.517    -2.731    -0.214    -17.85
   CaCO3           5.966e-06   5.989e-06    -5.224    -5.223     0.002    -14.60
   CaOH+           3.242e-09   2.853e-09    -8.489    -8.545    -0.056     (0)  
   CaHCO3+         8.122e-10   7.201e-10    -9.090    -9.143    -0.052      9.74
H(0)          0.000e+00
   H2              0.000e+00   0.000e+00   -41.556   -41.554     0.002     14.99
Mg            2.024e-03
   Mg+2            1.951e-03   1.205e-03    -2.710    -2.919    -0.209    -21.54
   MgHCO3+         7.090e-05   6.232e-05    -4.149    -4.205    -0.056      5.55
   MgCO3           2.197e-06   2.206e-06    -5.658    -5.656     0.002    -17.09
   MgOH+           4.556e-08   4.047e-08    -7.341    -7.393    -0.051     (0)  
N(-3)         0.000e+00
   NH4+            0.000e+00   0.000e+00   -50.572   -50.631    -0.059     17.99
   NH3             0.000e+00   0.000e+00   -52.910   -52.909     0.002     24.42
N(0)          1.287e-03
   N2              6.434e-04   6.458e-04    -3.192    -3.190     0.002     29.29
N(3)          1.164e-12
   NO2-            1.164e-12   1.018e-12   -11.934   -11.992    -0.058     25.06
N(5)          7.943e-03
   NO3-            7.943e-03   6.948e-03    -2.100    -2.158    -0.058     29.58
O(0)          1.110e-09
   O2              5.549e-10   5.570e-10    -9.256    -9.254     0.002     30.40

------------------------------Saturation indices-------------------------------

  Phase               SI** log IAP   log K(298 K,   1 atm)

  Aragonite        -0.11     -8.45   -8.34  CaCO3
  Calcite           0.00     -8.45   -8.45  CaCO3
  CH4(g)         -129.39   -132.20   -2.80  CH4	 Pressure   0.0 atm, phi 0.998
  CO2(g)           -1.50     -2.97   -1.47  CO2	 Pressure   0.0 atm, phi 0.996
  Dolomite          0.00    -17.08  -17.08  CaMg(CO3)2
  H2(g)           -38.45    -41.55   -3.10  H2
  H2O(g)           -1.50     -0.00    1.50  H2O
  N2(g)            -0.01     -3.19   -3.18  N2	 Pressure   1.0 atm, phi 1.000
  NH3(g)          -54.70    -52.91    1.80  NH3
  O2(g)            -6.36     -9.25   -2.89  O2	 Pressure   0.0 atm, phi 0.999

**For a gas, SI = log10(fugacity). Fugacity = pressure * phi / 1 atm.
  For ideal gases, phi = 1.

Reaction step 4.

Using solution 1.	
Using pure phase assemblage 1.	
Using gas phase 1.	
Using reaction 1.	

Reaction 1.	

	  3.000e-03 moles of the following reaction have been added:

	                 Relative
	Reactant            moles

	CH2O                 1.00000

	                 Relative
	Element             moles
	C                    1.00000
	H                    2.00000
	O                    1.00000

-----------------------------------Gas phase-----------------------------------

Total pressure:  1.00      atmospheres          (Peng-Robinson calculation)
    Gas volume:   7.41e-01 liters
  Molar volume:   2.45e+01 liters/mole
   P * Vm / RT:  0.99943  (Compressibility Factor Z) 

                                                        Moles in gas
                                            ----------------------------------
Component         log P           P    phi     Initial       Final       Delta

CH4(g)          -129.30  5.021e-130  0.998   4.089e-08   0.000e+00  -4.089e-08
CO2(g)            -1.43   3.703e-02  0.996   1.292e-05   1.122e-03   1.110e-03
N2(g)             -0.02   9.630e-01  1.000   3.190e-02   2.919e-02  -2.711e-03
O2(g)             -6.37   4.222e-07  0.999   8.179e-03   1.280e-08  -8.179e-03

-------------------------------Phase assemblage--------------------------------

                                                      Moles in assemblage
Phase               SI  log IAP  log K(T, P)   Initial       Final       Delta

Calcite           0.00    -8.45     -8.45    1.000e+01   9.999e+00  -9.793e-04
Dolomite          0.00   -17.08    -17.08    1.000e+01   9.998e+00  -1.964e-03

-----------------------------Solution composition------------------------------

	Elements           Molality       Moles

	C                 6.809e-03   6.809e-03
	Ca                2.943e-03   2.943e-03
	Mg                1.964e-03   1.964e-03
	N                 8.423e-03   8.423e-03

----------------------------Description of solution----------------------------

                                       pH  =   6.939      Charge balance
                                       pe  =  12.260      Adjusted to redox equilibrium
      Specific Conductance (µS/cm,  25°C)  = 1143
                          Density (g/cm³)  =   0.99775
                               Volume (L)  =   1.00329
                        Viscosity (mPa s)  =   0.89346
                        Activity of water  =   1.000
                 Ionic strength (mol/kgw)  =   1.600e-02
                       Mass of water (kg)  =   1.000e+00
                 Total alkalinity (eq/kg)  =   5.568e-03
                       Total CO2 (mol/kg)  =   6.809e-03
                         Temperature (°C)  =  25.00
                  Electrical balance (eq)  =  -2.896e-03
 Percent error, 100*(Cat-|An|)/(Cat+|An|)  = -12.96
                               Iterations  =  24
                                  Total H  = 1.110185e+02
                                  Total O  = 5.554710e+01

----------------------------Distribution of species----------------------------

                                               Log       Log       Log    mole V
   Species          Molality    Activity  Molality  Activity     Gamma   cm³/mol

   H+              1.283e-07   1.152e-07    -6.892    -6.939    -0.047      0.00
   OH-             1.000e-07   8.784e-08    -7.000    -7.056    -0.056     -4.00
   H2O             5.551e+01   9.997e-01     1.744    -0.000     0.000     18.07
C(-4)         0.000e+00
   CH4             0.000e+00   0.000e+00  -132.103  -132.102     0.002     35.46
C(4)          6.809e-03
   HCO3-           5.469e-03   4.846e-03    -2.262    -2.315    -0.053     24.77
   CO2             1.252e-03   1.255e-03    -2.902    -2.901     0.001     34.79
   MgHCO3+         7.546e-05   6.643e-05    -4.122    -4.178    -0.055      5.55
   CaCO3           5.967e-06   5.989e-06    -5.224    -5.223     0.002    -14.60
   CO3-2           3.205e-06   1.973e-06    -5.494    -5.705    -0.211     -4.22
   MgCO3           2.198e-06   2.206e-06    -5.658    -5.656     0.002    -17.09
   (CO2)2          2.556e-08   2.562e-08    -7.592    -7.591     0.001     68.75
   CaHCO3+         8.647e-10   7.677e-10    -9.063    -9.115    -0.052      9.74
Ca            2.943e-03
   Ca+2            2.937e-03   1.807e-03    -2.532    -2.743    -0.211    -17.85
   CaCO3           5.967e-06   5.989e-06    -5.224    -5.223     0.002    -14.60
   CaOH+           2.953e-09   2.603e-09    -8.530    -8.585    -0.055     (0)  
   CaHCO3+         8.647e-10   7.677e-10    -9.063    -9.115    -0.052      9.74
H(0)          0.000e+00
   H2              0.000e+00   0.000e+00   -41.549   -41.548     0.002     14.99
Mg            1.964e-03
   Mg+2            1.886e-03   1.172e-03    -2.724    -2.931    -0.207    -21.54
   MgHCO3+         7.546e-05   6.643e-05    -4.122    -4.178    -0.055      5.55
   MgCO3           2.198e-06   2.206e-06    -5.658    -5.656     0.002    -17.09
   MgOH+           4.150e-08   3.692e-08    -7.382    -7.433    -0.051     (0)  
N(-3)         0.000e+00
   NH4+            0.000e+00   0.000e+00   -50.536   -50.594    -0.058     17.99
   NH3             0.000e+00   0.000e+00   -52.902   -52.900     0.002     24.42
N(0)          1.280e-03
   N2              6.399e-04   6.422e-04    -3.194    -3.192     0.002     29.29
N(3)          1.062e-12
   NO2-            1.062e-12   9.308e-13   -11.974   -12.031    -0.057     25.06
N(5)          7.143e-03
   NO3-            7.143e-03   6.260e-03    -2.146    -2.203    -0.057     29.58
O(0)          1.077e-09
   O2              5.385e-10   5.405e-10    -9.269    -9.267     0.002     30.40

------------------------------Saturation indices-------------------------------

  Phase               SI** log IAP   log K(298 K,   1 atm)

  Aragonite        -0.11     -8.45   -8.34  CaCO3
  Calcite           0.00     -8.45   -8.45  CaCO3
  CH4(g)         -129.30   -132.10   -2.80  CH4	 Pressure   0.0 atm, phi 0.998
  CO2(g)           -1.43     -2.90   -1.47  CO2	 Pressure   0.0 atm, phi 0.996
  Dolomite          0.00    -17.08  -17.08  CaMg(CO3)2
  H2(g)           -38.45    -41.55   -3.10  H2
  H2O(g)           -1.50     -0.00    1.50  H2O
  N2(g)            -0.02     -3.19   -3.18  N2	 Pressure   1.0 atm, phi 1.000
  NH3(g)          -54.70    -52.90    1.80  NH3
  O2(g)            -6.37     -9.27   -2.89  O2	 Pressure   0.0 atm, phi 0.999

**For a gas, SI = log10(fugacity). Fugacity = pressure * phi / 1 atm.
  For ideal gases, phi = 1.

Reaction step 5.

Using solution 1.	
Using pure phase assemblage 1.	
Using gas phase 1.	
Using reaction 1.	

Reaction 1.	

	  4.000e-03 moles of the following reaction have been added:

	                 Relative
	Reactant            moles

	CH2O                 1.00000

	                 Relative
	Element             moles
	C                    1.00000
	H                    2.00000
	O                    1.00000

-----------------------------------Gas phase-----------------------------------

Total pressure:  1.00      atmospheres          (Peng-Robinson calculation)
    Gas volume:   7.56e-01 liters
  Molar volume:   2.45e+01 liters/mole
   P * Vm / RT:  0.99941  (Compressibility Factor Z) 

                                                        Moles in gas
                                            ----------------------------------
Component         log P           P    phi     Initial       Final       Delta

CH4(g)          -129.20  6.342e-130  0.998   4.089e-08   0.000e+00  -4.089e-08
CO2(g)            -1.37   4.238e-02  0.996   1.292e-05   1.309e-03   1.297e-03
N2(g)             -0.02   9.576e-01  1.000   3.190e-02   2.959e-02  -2.308e-03
O2(g)             -6.40   4.019e-07  0.999   8.179e-03   1.242e-08  -8.179e-03

-------------------------------Phase assemblage--------------------------------

                                                      Moles in assemblage
Phase               SI  log IAP  log K(T, P)   Initial       Final       Delta

Calcite           0.00    -8.45     -8.45    1.000e+01   9.999e+00  -9.374e-04
Dolomite          0.00   -17.08    -17.08    1.000e+01   9.998e+00  -1.901e-03

-----------------------------Solution composition------------------------------

	Elements           Molality       Moles

	C                 7.454e-03   7.454e-03
	Ca                2.838e-03   2.839e-03
	Mg                1.901e-03   1.901e-03
	N                 7.616e-03   7.616e-03

----------------------------Description of solution----------------------------

                                       pH  =   6.916      Charge balance
                                       pe  =  12.278      Adjusted to redox equilibrium
      Specific Conductance (µS/cm,  25°C)  = 1096
                          Density (g/cm³)  =   0.99773
                               Volume (L)  =   1.00330
                        Viscosity (mPa s)  =   0.89353
                        Activity of water  =   1.000
                 Ionic strength (mol/kgw)  =   1.549e-02
                       Mass of water (kg)  =   1.000e+00
                 Total alkalinity (eq/kg)  =   6.032e-03
                       Total CO2 (mol/kg)  =   7.454e-03
                         Temperature (°C)  =  25.00
                  Electrical balance (eq)  =  -2.896e-03
 Percent error, 100*(Cat-|An|)/(Cat+|An|)  = -13.37
                               Iterations  =  25
                                  Total H  = 1.110205e+02
                                  Total O  = 5.554722e+01

----------------------------Distribution of species----------------------------

                                               Log       Log       Log    mole V
   Species          Molality    Activity  Molality  Activity     Gamma   cm³/mol

   H+              1.351e-07   1.214e-07    -6.869    -6.916    -0.046      0.00
   OH-             9.472e-08   8.336e-08    -7.024    -7.079    -0.056     -4.00
   H2O             5.551e+01   9.997e-01     1.744    -0.000     0.000     18.07
C(-4)         0.000e+00
   CH4             0.000e+00   0.000e+00  -132.002  -132.000     0.002     35.46
C(4)          7.454e-03
   HCO3-           5.930e-03   5.262e-03    -2.227    -2.279    -0.052     24.76
   CO2             1.433e-03   1.437e-03    -2.844    -2.843     0.001     34.79
   MgHCO3+         7.938e-05   7.001e-05    -4.100    -4.155    -0.055      5.55
   CaCO3           5.968e-06   5.989e-06    -5.224    -5.223     0.002    -14.60
   CO3-2           3.282e-06   2.033e-06    -5.484    -5.692    -0.208     -4.23
   MgCO3           2.198e-06   2.206e-06    -5.658    -5.656     0.002    -17.09
   (CO2)2          3.347e-08   3.355e-08    -7.475    -7.474     0.001     68.75
   CaHCO3+         9.098e-10   8.090e-10    -9.041    -9.092    -0.051      9.74
Ca            2.838e-03
   Ca+2            2.833e-03   1.754e-03    -2.548    -2.756    -0.208    -17.86
   CaCO3           5.968e-06   5.989e-06    -5.224    -5.223     0.002    -14.60
   CaOH+           2.715e-09   2.397e-09    -8.566    -8.620    -0.054     (0)  
   CaHCO3+         9.098e-10   8.090e-10    -9.041    -9.092    -0.051      9.74
H(0)          0.000e+00
   H2              0.000e+00   0.000e+00   -41.539   -41.537     0.002     14.99
Mg            1.901e-03
   Mg+2            1.819e-03   1.137e-03    -2.740    -2.944    -0.204    -21.55
   MgHCO3+         7.938e-05   7.001e-05    -4.100    -4.155    -0.055      5.55
   MgCO3           2.198e-06   2.206e-06    -5.658    -5.656     0.002    -17.09
   MgOH+           3.816e-08   3.400e-08    -7.418    -7.469    -0.050     (0)  
N(-3)         0.000e+00
   NH4+            0.000e+00   0.000e+00   -50.499   -50.557    -0.058     17.98
   NH3             0.000e+00   0.000e+00   -52.887   -52.885     0.002     24.42
N(0)          1.273e-03
   N2              6.364e-04   6.387e-04    -3.196    -3.195     0.002     29.29
N(3)          9.669e-13
   NO2-            9.669e-13   8.488e-13   -12.015   -12.071    -0.057     25.05
N(5)          6.343e-03
   NO3-            6.343e-03   5.569e-03    -2.198    -2.254    -0.057     29.58
O(0)          1.025e-09
   O2              5.126e-10   5.145e-10    -9.290    -9.289     0.002     30.40

------------------------------Saturation indices-------------------------------

  Phase               SI** log IAP   log K(298 K,   1 atm)

  Aragonite        -0.11     -8.45   -8.34  CaCO3
  Calcite           0.00     -8.45   -8.45  CaCO3
  CH4(g)         -129.20   -132.00   -2.80  CH4	 Pressure   0.0 atm, phi 0.998
  CO2(g)           -1.37     -2.84   -1.47  CO2	 Pressure   0.0 atm, phi 0.996
  Dolomite          0.00    -17.08  -17.08  CaMg(CO3)2
  H2(g)           -38.44    -41.54   -3.10  H2
  H2O(g)           -1.50     -0.00    1.50  H2O
  N2(g)            -0.02     -3.19   -3.18  N2	 Pressure   1.0 atm, phi 1.000
  NH3(g)          -54.68    -52.89    1.80  NH3
  O2(g)            -6.40     -9.29   -2.89  O2	 Pressure   0.0 atm, phi 0.999

**For a gas, SI = log10(fugacity). Fugacity = pressure * phi / 1 atm.
  For ideal gases, phi = 1.

Reaction step 6.

Using solution 1.	
Using pure phase assemblage 1.	
Using gas phase 1.	
Using reaction 1.	

Reaction 1.	

	  1.000e-02 moles of the following reaction have been added:

	                 Relative
	Reactant            moles

	CH2O                 1.00000

	                 Relative
	Element             moles
	C                    1.00000
	H                    2.00000
	O                    1.00000

-----------------------------------Gas phase-----------------------------------

Total pressure:  1.00      atmospheres          (Peng-Robinson calculation)
    Gas volume:   8.44e-01 liters
  Molar volume:   2.44e+01 liters/mole
   P * Vm / RT:  0.99931  (Compressibility Factor Z) 

                                                        Moles in gas
                                            ----------------------------------
Component         log P           P    phi     Initial       Final       Delta

CH4(g)          -128.11  7.721e-129  0.998   4.089e-08   0.000e+00  -4.089e-08
CO2(g)            -1.14   7.316e-02  0.996   1.292e-05   2.527e-03   2.514e-03
N2(g)             -0.03   9.268e-01  1.000   3.190e-02   3.201e-02   1.120e-04
O2(g)             -6.82   1.513e-07  0.999   8.179e-03   5.227e-09  -8.179e-03

-------------------------------Phase assemblage--------------------------------

                                                      Moles in assemblage
Phase               SI  log IAP  log K(T, P)   Initial       Final       Delta

Calcite           0.00    -8.45     -8.45    1.000e+01   9.999e+00  -6.882e-04
Dolomite          0.00   -17.08    -17.08    1.000e+01   9.999e+00  -1.496e-03

-----------------------------Solution composition------------------------------

	Elements           Molality       Moles

	C                 1.118e-02   1.118e-02
	Ca                2.184e-03   2.185e-03
	Mg                1.496e-03   1.496e-03
	N                 2.776e-03   2.776e-03

----------------------------Description of solution----------------------------

                                       pH  =   6.845      Charge balance
                                       pe  =  12.243      Adjusted to redox equilibrium
      Specific Conductance (µS/cm,  25°C)  = 798
                          Density (g/cm³)  =   0.99763
                               Volume (L)  =   1.00336
                        Viscosity (mPa s)  =   0.89395
                        Activity of water  =   1.000
                 Ionic strength (mol/kgw)  =   1.228e-02
                       Mass of water (kg)  =   1.000e+00
                 Total alkalinity (eq/kg)  =   8.714e-03
                       Total CO2 (mol/kg)  =   1.118e-02
                         Temperature (°C)  =  25.00
                  Electrical balance (eq)  =  -2.896e-03
 Percent error, 100*(Cat-|An|)/(Cat+|An|)  = -16.64
                               Iterations  =  23
                                  Total H  = 1.110325e+02
                                  Total O  = 5.554761e+01

----------------------------Distribution of species----------------------------

                                               Log       Log       Log    mole V
   Species          Molality    Activity  Molality  Activity     Gamma   cm³/mol

   H+              1.577e-07   1.429e-07    -6.802    -6.845    -0.043      0.00
   OH-             7.945e-08   7.079e-08    -7.100    -7.150    -0.050     -4.02
   H2O             5.551e+01   9.997e-01     1.744    -0.000     0.000     18.07
C(-4)         0.000e+00
   CH4             0.000e+00   0.000e+00  -130.916  -130.915     0.001     35.46
C(4)          1.118e-02
   HCO3-           8.597e-03   7.713e-03    -2.066    -2.113    -0.047     24.73
   CO2             2.475e-03   2.480e-03    -2.606    -2.606     0.001     34.79
   MgHCO3+         9.236e-05   8.244e-05    -4.035    -4.084    -0.049      5.54
   CaCO3           5.972e-06   5.989e-06    -5.224    -5.223     0.001    -14.60
   CO3-2           3.910e-06   2.530e-06    -5.408    -5.597    -0.189     -4.30
   MgCO3           2.200e-06   2.206e-06    -5.658    -5.656     0.001    -17.09
   (CO2)2          9.977e-08   9.996e-08    -7.001    -7.000     0.001     68.75
   CaHCO3+         1.060e-09   9.527e-10    -8.975    -9.021    -0.046      9.73
Ca            2.184e-03
   Ca+2            2.178e-03   1.409e-03    -2.662    -2.851    -0.189    -17.90
   CaCO3           5.972e-06   5.989e-06    -5.224    -5.223     0.001    -14.60
   CaOH+           1.831e-09   1.635e-09    -8.737    -8.786    -0.049     (0)  
   CaHCO3+         1.060e-09   9.527e-10    -8.975    -9.021    -0.046      9.73
H(0)          0.000e+00
   H2              0.000e+00   0.000e+00   -41.326   -41.325     0.001     14.99
Mg            1.496e-03
   Mg+2            1.402e-03   9.135e-04    -2.853    -3.039    -0.186    -21.58
   MgHCO3+         9.236e-05   8.244e-05    -4.035    -4.084    -0.049      5.54
   MgCO3           2.200e-06   2.206e-06    -5.658    -5.656     0.001    -17.09
   MgOH+           2.577e-08   2.320e-08    -7.589    -7.635    -0.046     (0)  
N(-3)         0.000e+00
   NH4+            0.000e+00   0.000e+00   -50.123   -50.175    -0.052     17.97
   NH3             0.000e+00   0.000e+00   -52.575   -52.574     0.001     24.42
N(0)          1.233e-03
   N2              6.164e-04   6.181e-04    -3.210    -3.209     0.001     29.29
N(3)          3.833e-13
   NO2-            3.833e-13   3.409e-13   -12.416   -12.467    -0.051     25.04
N(5)          1.543e-03
   NO3-            1.543e-03   1.372e-03    -2.812    -2.863    -0.051     29.56
O(0)          3.863e-10
   O2              1.932e-10   1.937e-10    -9.714    -9.713     0.001     30.40

------------------------------Saturation indices-------------------------------

  Phase               SI** log IAP   log K(298 K,   1 atm)

  Aragonite        -0.11     -8.45   -8.34  CaCO3
  Calcite           0.00     -8.45   -8.45  CaCO3
  CH4(g)         -128.11   -130.92   -2.80  CH4	 Pressure   0.0 atm, phi 0.998
  CO2(g)           -1.14     -2.61   -1.47  CO2	 Pressure   0.1 atm, phi 0.996
  Dolomite          0.00    -17.08  -17.08  CaMg(CO3)2
  H2(g)           -38.23    -41.32   -3.10  H2
  H2O(g)           -1.50     -0.00    1.50  H2O
  N2(g)            -0.03     -3.21   -3.18  N2	 Pressure   0.9 atm, phi 1.000
  NH3(g)          -54.37    -52.57    1.80  NH3
  O2(g)            -6.82     -9.71   -2.89  O2	 Pressure   0.0 atm, phi 0.999

**For a gas, SI = log10(fugacity). Fugacity = pressure * phi / 1 atm.
  For ideal gases, phi = 1.

Reaction step 7.

Using solution 1.	
Using pure phase assemblage 1.	
Using gas phase 1.	
Using reaction 1.	

Reaction 1.	

	  1.000e-01 moles of the following reaction have been added:

	                 Relative
	Reactant            moles

	CH2O                 1.00000

	                 Relative
	Element             moles
	C                    1.00000
	H                    2.00000
	O                    1.00000

-----------------------------------Gas phase-----------------------------------

Total pressure:  1.00      atmospheres          (Peng-Robinson calculation)
    Gas volume:   2.62e+00 liters
  Molar volume:   2.44e+01 liters/mole
   P * Vm / RT:  0.99750  (Compressibility Factor Z) 

                                                        Moles in gas
                                            ----------------------------------
Component         log P           P    phi     Initial       Final       Delta

CH4(g)            -0.41   3.892e-01  0.998   4.089e-08   4.177e-02   4.177e-02
CO2(g)            -0.49   3.220e-01  0.995   1.292e-05   3.456e-02   3.455e-02
N2(g)             -0.54   2.888e-01  1.000   3.190e-02   3.100e-02  -8.969e-04
O2(g)            -70.35   4.467e-71  0.999   8.179e-03   0.000e+00  -8.179e-03

-------------------------------Phase assemblage--------------------------------

                                                      Moles in assemblage
Phase               SI  log IAP  log K(T, P)   Initial       Final       Delta

Calcite           0.00    -8.45     -8.45    1.000e+01   9.999e+00  -8.151e-04
Dolomite          0.00   -17.08    -17.08    1.000e+01   9.998e+00  -2.055e-03

-----------------------------Solution composition------------------------------

	Elements           Molality       Moles

	C                 2.862e-02   2.862e-02
	Ca                2.870e-03   2.870e-03
	Mg                2.055e-03   2.055e-03
	N                 4.794e-03   4.794e-03

----------------------------Description of solution----------------------------

                                       pH  =   6.485      Charge balance
                                       pe  =  -3.280      Adjusted to redox equilibrium
      Specific Conductance (µS/cm,  25°C)  = 1383
                          Density (g/cm³)  =   0.99801
                               Volume (L)  =   1.00374
                        Viscosity (mPa s)  =   0.89582
                        Activity of water  =   0.999
                 Ionic strength (mol/kgw)  =   2.017e-02
                       Mass of water (kg)  =   1.000e+00
                 Total alkalinity (eq/kg)  =   1.716e-02
                       Total CO2 (mol/kg)  =   2.801e-02
                         Temperature (°C)  =  25.00
                  Electrical balance (eq)  =  -2.896e-03
 Percent error, 100*(Cat-|An|)/(Cat+|An|)  =  -9.36
                               Iterations  =  22
                                  Total H  = 1.110455e+02
                                  Total O  = 5.557728e+01

----------------------------Distribution of species----------------------------

                                               Log       Log       Log    mole V
   Species          Molality    Activity  Molality  Activity     Gamma   cm³/mol

   H+              3.680e-07   3.273e-07    -6.434    -6.485    -0.051      0.00
   OH-             3.567e-08   3.091e-08    -7.448    -7.510    -0.062     -3.98
   H2O             5.551e+01   9.994e-01     1.744    -0.000     0.000     18.07
C(-4)         6.100e-04
   CH4             6.100e-04   6.128e-04    -3.215    -3.213     0.002     35.46
C(4)          2.801e-02
   HCO3-           1.691e-02   1.481e-02    -1.772    -1.830    -0.058     24.81
   CO2             1.087e-02   1.090e-02    -1.964    -1.963     0.001     34.79
   MgHCO3+         2.172e-04   1.887e-04    -3.663    -3.724    -0.061      5.56
   CaCO3           5.961e-06   5.989e-06    -5.225    -5.223     0.002    -14.60
   CO3-2           3.615e-06   2.122e-06    -5.442    -5.673    -0.231     -4.15
   MgCO3           2.196e-06   2.206e-06    -5.658    -5.656     0.002    -17.09
   (CO2)2          1.926e-06   1.932e-06    -5.715    -5.714     0.001     68.75
   CaHCO3+         2.485e-09   2.181e-09    -8.605    -8.661    -0.057      9.75
Ca            2.870e-03
   Ca+2            2.864e-03   1.680e-03    -2.543    -2.775    -0.232    -17.81
   CaCO3           5.961e-06   5.989e-06    -5.225    -5.223     0.002    -14.60
   CaHCO3+         2.485e-09   2.181e-09    -8.605    -8.661    -0.057      9.75
   CaOH+           9.785e-10   8.515e-10    -9.009    -9.070    -0.060     (0)  
H(0)          5.479e-10
   H2              2.739e-10   2.753e-10    -9.562    -9.560     0.002     14.99
Mg            2.055e-03
   Mg+2            1.836e-03   1.089e-03    -2.736    -2.963    -0.227    -21.50
   MgHCO3+         2.172e-04   1.887e-04    -3.663    -3.724    -0.061      5.56
   MgCO3           2.196e-06   2.206e-06    -5.658    -5.656     0.002    -17.09
   MgOH+           1.373e-08   1.208e-08    -7.862    -7.918    -0.056     (0)  
N(-3)         4.411e-03
   NH4+            4.404e-03   3.793e-03    -2.356    -2.421    -0.065     18.00
   NH3             6.575e-06   6.605e-06    -5.182    -5.180     0.002     24.42
N(0)          3.837e-04
   N2              1.918e-04   1.927e-04    -3.717    -3.715     0.002     29.29
N(3)          0.000e+00
   NO2-            0.000e+00   0.000e+00   -60.664   -60.728    -0.064     25.07
N(5)          0.000e+00
   NO3-            0.000e+00   0.000e+00   -82.824   -82.888    -0.064     29.60
O(0)          0.000e+00
   O2              0.000e+00   0.000e+00   -73.245   -73.243     0.002     30.40

------------------------------Saturation indices-------------------------------

  Phase               SI** log IAP   log K(298 K,   1 atm)

  Aragonite        -0.11     -8.45   -8.34  CaCO3
  Calcite           0.00     -8.45   -8.45  CaCO3
  CH4(g)           -0.41     -3.21   -2.80  CH4	 Pressure   0.4 atm, phi 0.998
  CO2(g)           -0.49     -1.96   -1.47  CO2	 Pressure   0.3 atm, phi 0.995
  Dolomite          0.00    -17.08  -17.08  CaMg(CO3)2
  H2(g)            -6.46     -9.56   -3.10  H2
  H2O(g)           -1.50     -0.00    1.50  H2O
  N2(g)            -0.54     -3.72   -3.18  N2	 Pressure   0.3 atm, phi 1.000
  NH3(g)           -6.98     -5.18    1.80  NH3
  O2(g)           -70.35    -73.24   -2.89  O2	 Pressure   0.0 atm, phi 0.999

**For a gas, SI = log10(fugacity). Fugacity = pressure * phi / 1 atm.
  For ideal gases, phi = 1.

Reaction step 8.

Using solution 1.	
Using pure phase assemblage 1.	
Using gas phase 1.	
Using reaction 1.	

Reaction 1.	

	  3.000e-01 moles of the following reaction have been added:

	                 Relative
	Reactant            moles

	CH2O                 1.00000

	                 Relative
	Element             moles
	C                    1.00000
	H                    2.00000
	O                    1.00000

-----------------------------------Gas phase-----------------------------------

Total pressure:  1.00      atmospheres          (Peng-Robinson calculation)
    Gas volume:   7.42e+00 liters
  Molar volume:   2.44e+01 liters/mole
   P * Vm / RT:  0.99674  (Compressibility Factor Z) 

                                                        Moles in gas
                                            ----------------------------------
Component         log P           P    phi     Initial       Final       Delta

CH4(g)            -0.33   4.668e-01  0.998   4.089e-08   1.421e-01   1.421e-01
CO2(g)            -0.37   4.290e-01  0.995   1.292e-05   1.306e-01   1.306e-01
N2(g)             -0.98   1.042e-01  1.000   3.190e-02   3.171e-02  -1.890e-04
O2(g)            -70.33   4.705e-71  1.000   8.179e-03   0.000e+00  -8.179e-03

-------------------------------Phase assemblage--------------------------------

                                                      Moles in assemblage
Phase               SI  log IAP  log K(T, P)   Initial       Final       Delta

Calcite           0.00    -8.45     -8.45    1.000e+01   9.999e+00  -9.896e-04
Dolomite          0.00   -17.08    -17.08    1.000e+01   9.997e+00  -2.524e-03

-----------------------------Solution composition------------------------------

	Elements           Molality       Moles

	C                 3.341e-02   3.341e-02
	Ca                3.514e-03   3.514e-03
	Mg                2.524e-03   2.524e-03
	N                 3.378e-03   3.378e-03

----------------------------Description of solution----------------------------

                                       pH  =   6.383      Charge balance
                                       pe  =  -3.173      Adjusted to redox equilibrium
      Specific Conductance (µS/cm,  25°C)  = 1443
                          Density (g/cm³)  =   0.99814
                               Volume (L)  =   1.00387
                        Viscosity (mPa s)  =   0.89694
                        Activity of water  =   0.999
                 Ionic strength (mol/kgw)  =   2.223e-02
                       Mass of water (kg)  =   1.000e+00
                 Total alkalinity (eq/kg)  =   1.821e-02
                       Total CO2 (mol/kg)  =   3.268e-02
                         Temperature (°C)  =  25.00
                  Electrical balance (eq)  =  -2.896e-03
 Percent error, 100*(Cat-|An|)/(Cat+|An|)  =  -8.79
                               Iterations  =  24
                                  Total H  = 1.110442e+02
                                  Total O  = 5.558861e+01

----------------------------Distribution of species----------------------------

                                               Log       Log       Log    mole V
   Species          Molality    Activity  Molality  Activity     Gamma   cm³/mol

   H+              4.671e-07   4.137e-07    -6.331    -6.383    -0.053      0.00
   OH-             2.839e-08   2.445e-08    -7.547    -7.612    -0.065     -3.97
   H2O             5.551e+01   9.993e-01     1.744    -0.000     0.000     18.07
C(-4)         7.314e-04
   CH4             7.314e-04   7.351e-04    -3.136    -3.134     0.002     35.46
C(4)          3.268e-02
   HCO3-           1.791e-02   1.560e-02    -1.747    -1.807    -0.060     24.83
   CO2             1.447e-02   1.452e-02    -1.839    -1.838     0.001     34.79
   MgHCO3+         2.762e-04   2.386e-04    -3.559    -3.622    -0.064      5.57
   CaCO3           5.958e-06   5.989e-06    -5.225    -5.223     0.002    -14.60
   (CO2)2          3.416e-06   3.428e-06    -5.466    -5.465     0.001     68.75
   CO3-2           3.078e-06   1.769e-06    -5.512    -5.752    -0.241     -4.11
   MgCO3           2.195e-06   2.206e-06    -5.659    -5.656     0.002    -17.09
   CaHCO3+         3.156e-09   2.757e-09    -8.501    -8.560    -0.059      9.75
Ca            3.514e-03
   Ca+2            3.508e-03   2.016e-03    -2.455    -2.696    -0.241    -17.80
   CaCO3           5.958e-06   5.989e-06    -5.225    -5.223     0.002    -14.60
   CaHCO3+         3.156e-09   2.757e-09    -8.501    -8.560    -0.059      9.75
   CaOH+           9.337e-10   8.081e-10    -9.030    -9.093    -0.063     (0)  
H(0)          5.334e-10
   H2              2.667e-10   2.681e-10    -9.574    -9.572     0.002     14.99
Mg            2.524e-03
   Mg+2            2.246e-03   1.307e-03    -2.649    -2.884    -0.235    -21.48
   MgHCO3+         2.762e-04   2.386e-04    -3.559    -3.622    -0.064      5.57
   MgCO3           2.195e-06   2.206e-06    -5.659    -5.656     0.002    -17.09
   MgOH+           1.309e-08   1.146e-08    -7.883    -7.941    -0.058     (0)  
N(-3)         3.240e-03
   NH4+            3.236e-03   2.769e-03    -2.490    -2.558    -0.068     18.01
   NH3             3.795e-06   3.815e-06    -5.421    -5.419     0.002     24.42
N(0)          1.384e-04
   N2              6.918e-05   6.954e-05    -4.160    -4.158     0.002     29.29
N(3)          0.000e+00
   NO2-            0.000e+00   0.000e+00   -60.967   -61.034    -0.066     25.08
N(5)          0.000e+00
   NO3-            0.000e+00   0.000e+00   -83.116   -83.182    -0.066     29.60
O(0)          0.000e+00
   O2              0.000e+00   0.000e+00   -73.222   -73.220     0.002     30.40

------------------------------Saturation indices-------------------------------

  Phase               SI** log IAP   log K(298 K,   1 atm)

  Aragonite        -0.11     -8.45   -8.34  CaCO3
  Calcite           0.00     -8.45   -8.45  CaCO3
  CH4(g)           -0.33     -3.13   -2.80  CH4	 Pressure   0.5 atm, phi 0.998
  CO2(g)           -0.37     -1.84   -1.47  CO2	 Pressure   0.4 atm, phi 0.995
  Dolomite          0.00    -17.08  -17.08  CaMg(CO3)2
  H2(g)            -6.47     -9.57   -3.10  H2
  H2O(g)           -1.50     -0.00    1.50  H2O
  N2(g)            -0.98     -4.16   -3.18  N2	 Pressure   0.1 atm, phi 1.000
  NH3(g)           -7.21     -5.42    1.80  NH3
  O2(g)           -70.33    -73.22   -2.89  O2	 Pressure   0.0 atm, phi 1.000

**For a gas, SI = log10(fugacity). Fugacity = pressure * phi / 1 atm.
  For ideal gases, phi = 1.

------------------
End of simulation.
------------------

------------------------------------
Reading input data for simulation 2.
------------------------------------

