WARNING: Database file from DATABASE keyword is used; command line argument ignored.
   Input file: gas_mod
  Output file: gas_mod.out
Database file: ../database/phreeqc.dat

------------------
Reading data base.
------------------

	SOLUTION_MASTER_SPECIES
	SOLUTION_SPECIES
	PHASES
	GAS_BINARY_PARAMETERS
	EXCHANGE_MASTER_SPECIES
	EXCHANGE_SPECIES
	SURFACE_MASTER_SPECIES
	SURFACE_SPECIES
	MEAN_GAMMAS
	RATES
	END
------------------------------------
Reading input data for simulation 1.
------------------------------------

	DATABASE ../database/phreeqc.dat
	SELECTED_OUTPUT 101
	    file                 gas_mod_101.sel
	USER_PUNCH 101
	    headings Mu SC
	    start
	10 PUNCH STR_F$(MU, 20, 12)
	20 PUNCH STR_F$(SC, 20, 10)
	    end
	PHASES 
	CO2(g) 
	CO2 = CO2 
	analytical_expression 108.3865 0.01985076 -6919.53 -40.45154 669365.0 
	t_c 304.2 # critical T, K 
	p_c 72.80 # critical P, atm 
	omega 0.225 # Pitzer acentric factor
	SOLUTION 1
	pH 7 charge 
	C(4) 1 CO2(g) 1.0 
	pressure 10 
	END
-------------------------------------------
Beginning of initial solution calculations.
-------------------------------------------

Initial solution 1.	

-----------------------------Solution composition------------------------------

	Elements           Molality       Moles

	C(4)              3.214e-01   3.214e-01  Equilibrium with CO2(g)

----------------------------Description of solution----------------------------

                                       pH  =   3.424      Charge balance
                                       pe  =   4.000    
      Specific Conductance (µS/cm,  25°C)  = 145
                          Density (g/cm³)  =   1.00041
                               Volume (L)  =   1.01373
                        Viscosity (mPa s)  =   0.91203
                        Activity of water  =   0.995
                 Ionic strength (mol/kgw)  =   3.853e-04
                       Mass of water (kg)  =   1.000e+00
                 Total alkalinity (eq/kg)  =  -2.705e-16
                       Total CO2 (mol/kg)  =   3.214e-01
                         Temperature (°C)  =  25.00
                           Pressure (atm)  = 10.00
                  Electrical balance (eq)  =   2.705e-16
 Percent error, 100*(Cat-|An|)/(Cat+|An|)  =   0.00
                               Iterations  =   6
                                  Total H  = 1.110132e+02
                                  Total O  = 5.614942e+01

----------------------------Distribution of species----------------------------

                                               Log       Log       Log    mole V
   Species          Molality    Activity  Molality  Activity     Gamma   cm³/mol

   H+              3.853e-04   3.770e-04    -3.414    -3.424    -0.009      0.00
   OH-             2.754e-11   2.692e-11   -10.560   -10.570    -0.010     -4.09
   H2O             5.551e+01   9.946e-01     1.744    -0.002     0.000     18.06
C(4)          3.214e-01
   CO2             3.177e-01   3.178e-01    -0.498    -0.498     0.000     34.78
   (CO2)2          1.642e-03   1.642e-03    -2.785    -2.785     0.000     68.73
   HCO3-           3.853e-04   3.768e-04    -3.414    -3.424    -0.010     24.57
   CO3-2           5.179e-11   4.738e-11   -10.286   -10.324    -0.039     -4.64
H(0)          2.001e-18
   H2              1.000e-18   1.000e-18   -18.000   -18.000     0.000     15.00
O(0)          0.000e+00
   O2              0.000e+00   0.000e+00   -56.372   -56.372     0.000     30.39

------------------------------Saturation indices-------------------------------

  Phase               SI** log IAP   log K(298 K,  10 atm)

  CO2(g)            0.98     -0.50   -1.47  CO2	 Pressure  10.0 atm, phi 0.945
  H2(g)           -14.90    -18.00   -3.10  H2
  H2O(g)           -1.50     -0.00    1.50  H2O
  O2(g)           -53.47    -56.37   -2.90  O2

**For a gas, SI = log10(fugacity). Fugacity = pressure * phi / 1 atm.
  For ideal gases, phi = 1.

------------------
End of simulation.
------------------

------------------------------------
Reading input data for simulation 2.
------------------------------------

	USE solution 1
	GAS_PHASE 1
	fixed_volume 
	volume 1e-6 
	CO2(g) 0 
	SAVE gas_phase 1
	SELECTED_OUTPUT
	 reset false
	 file gas_mod.inp
	 high_precision true
	USER_PUNCH 
	2 sc$ = CHR$(59) 
	10 punch 'GAS_PHASE_MODIFY 1' + sc$ + ' -volume 1' + EOL$ 
	20 punch '-comp CO2(g)' + EOL$ 
	30 punch '-moles '+ STR$(1e6 * GAS("CO2(g)")) + EOL$ 
	END 
-----------------------------------------
Beginning of batch-reaction calculations.
-----------------------------------------

Reaction step 1.

WARNING: Numerical method failed, switching to numerical derivatives.
WARNING: Maximum iterations exceeded, 100

WARNING: Numerical method failed with this set of convergence parameters.

WARNING: Trying smaller step size, pe step size 10, 5 ... 

WARNING: USER_PUNCH: Headings count does not match number of calls to PUNCH.

Using solution 1.	
Using gas phase 1.	

-----------------------------------Gas phase-----------------------------------

Total pressure: 10.00      atmospheres          (Peng-Robinson calculation)
    Gas volume:   1.00e-06 liters
  Molar volume:   2.31e+00 liters/mole
   P * Vm / RT:  0.94296  (Compressibility Factor Z) 

                                                        Moles in gas
                                            ----------------------------------
Component         log P           P    phi     Initial       Final       Delta

CO2(g)             1.00   1.000e+01  0.945   0.000e+00   4.335e-07   4.335e-07

-----------------------------Solution composition------------------------------

	Elements           Molality       Moles

	C                 3.214e-01   3.214e-01

----------------------------Description of solution----------------------------

                                       pH  =   3.424      Charge balance
                                       pe  =  14.716      Adjusted to redox equilibrium
      Specific Conductance (µS/cm,  25°C)  = 145
                          Density (g/cm³)  =   1.00041
                               Volume (L)  =   1.01373
                        Viscosity (mPa s)  =   0.91203
                        Activity of water  =   0.995
                 Ionic strength (mol/kgw)  =   3.853e-04
                       Mass of water (kg)  =   1.000e+00
                 Total alkalinity (eq/kg)  =  -3.682e-16
                       Total CO2 (mol/kg)  =   3.214e-01
                         Temperature (°C)  =  25.00
                           Pressure (atm)  = 10.00
                  Electrical balance (eq)  =   3.682e-16
 Percent error, 100*(Cat-|An|)/(Cat+|An|)  =   0.00
                               Iterations  = 115 (216 overall)
                                  Total H  = 1.110132e+02
                                  Total O  = 5.614942e+01

----------------------------Distribution of species----------------------------

                                               Log       Log       Log    mole V
   Species          Molality    Activity  Molality  Activity     Gamma   cm³/mol

   H+              3.853e-04   3.770e-04    -3.414    -3.424    -0.009      0.00
   OH-             2.754e-11   2.692e-11   -10.560   -10.570    -0.010     -4.09
   H2O             5.551e+01   9.946e-01     1.744    -0.002     0.000     18.06
C(-4)         0.000e+00
   CH4             0.000e+00   0.000e+00  -121.230  -121.230     0.000     35.47
C(4)          3.214e-01
   CO2             3.177e-01   3.178e-01    -0.498    -0.498     0.000     34.78
   (CO2)2          1.642e-03   1.642e-03    -2.785    -2.785     0.000     68.73
   HCO3-           3.853e-04   3.768e-04    -3.414    -3.424    -0.010     24.57
   CO3-2           5.179e-11   4.738e-11   -10.286   -10.324    -0.039     -4.64
H(0)          7.384e-40
   H2              3.692e-40   3.692e-40   -39.433   -39.433     0.000     15.00
O(0)          6.241e-14
   O2              3.120e-14   3.121e-14   -13.506   -13.506     0.000     30.39

------------------------------Saturation indices-------------------------------

  Phase               SI** log IAP   log K(298 K,  10 atm)

  CH4(g)         -118.42   -121.23   -2.81  CH4
  CO2(g)            0.98     -0.50   -1.47  CO2	 Pressure  10.0 atm, phi 0.945
  H2(g)           -36.33    -39.43   -3.10  H2
  H2O(g)           -1.50     -0.00    1.50  H2O
  O2(g)           -10.61    -13.51   -2.90  O2

**For a gas, SI = log10(fugacity). Fugacity = pressure * phi / 1 atm.
  For ideal gases, phi = 1.

------------------
End of simulation.
------------------

------------------------------------
Reading input data for simulation 3.
------------------------------------

	DUMP
	 -file dump
	 -gas_phase 1 
	END
------------------
End of simulation.
------------------

------------------------------------
Reading input data for simulation 4.
------------------------------------

	PRINT
	 selected_output false

	Reading data from gas_mod.inp ...
	GAS_PHASE_MODIFY 1
	 -volume 1
		       -comp CO2(g)
		-moles   4.334538202957e-01
	END
------------------
End of simulation.
------------------

------------------------------------
Reading input data for simulation 5.
------------------------------------

	DUMP
		-append
		-gas_phase 1 
	END
------------------
End of simulation.
------------------

------------------------------------
Reading input data for simulation 6.
------------------------------------

	USE gas_phase 1
	 USE solution 1 
	END
-----------------------------------------
Beginning of batch-reaction calculations.
-----------------------------------------

Reaction step 1.

Using solution 1.	
Using gas phase 1.	

-----------------------------------Gas phase-----------------------------------

Total pressure: 10.00      atmospheres          (Peng-Robinson calculation)
    Gas volume:   1.00e+00 liters
  Molar volume:   2.31e+00 liters/mole
   P * Vm / RT:  0.94296  (Compressibility Factor Z) 

                                                        Moles in gas
                                            ----------------------------------
Component         log P           P    phi     Initial       Final       Delta

CO2(g)             1.00   1.000e+01  0.945   4.335e-01   4.335e-01   2.620e-07

-----------------------------Solution composition------------------------------

	Elements           Molality       Moles

	C                 3.214e-01   3.214e-01

----------------------------Description of solution----------------------------

                                       pH  =   3.424      Charge balance
                                       pe  =  14.332      Adjusted to redox equilibrium
      Specific Conductance (µS/cm,  25°C)  = 145
                          Density (g/cm³)  =   1.00041
                               Volume (L)  =   1.01373
                        Viscosity (mPa s)  =   0.91203
                        Activity of water  =   0.995
                 Ionic strength (mol/kgw)  =   3.853e-04
                       Mass of water (kg)  =   1.000e+00
                 Total alkalinity (eq/kg)  =  -3.189e-16
                       Total CO2 (mol/kg)  =   3.214e-01
                         Temperature (°C)  =  25.00
                           Pressure (atm)  = 10.00
                  Electrical balance (eq)  =   3.189e-16
 Percent error, 100*(Cat-|An|)/(Cat+|An|)  =   0.00
                               Iterations  =  50
                                  Total H  = 1.110132e+02
                                  Total O  = 5.614942e+01

----------------------------Distribution of species----------------------------

                                               Log       Log       Log    mole V
   Species          Molality    Activity  Molality  Activity     Gamma   cm³/mol

   H+              3.853e-04   3.770e-04    -3.414    -3.424    -0.009      0.00
   OH-             2.754e-11   2.692e-11   -10.560   -10.570    -0.010     -4.09
   H2O             5.551e+01   9.946e-01     1.744    -0.002     0.000     18.06
C(-4)         0.000e+00
   CH4             0.000e+00   0.000e+00  -118.153  -118.153     0.000     35.47
C(4)          3.214e-01
   CO2             3.177e-01   3.178e-01    -0.498    -0.498     0.000     34.78
   (CO2)2          1.642e-03   1.642e-03    -2.785    -2.785     0.000     68.73
   HCO3-           3.853e-04   3.768e-04    -3.414    -3.424    -0.010     24.57
   CO3-2           5.179e-11   4.738e-11   -10.286   -10.324    -0.039     -4.64
H(0)          4.339e-39
   H2              2.170e-39   2.170e-39   -38.664   -38.664     0.000     15.00
O(0)          1.807e-15
   O2              9.035e-16   9.035e-16   -15.044   -15.044     0.000     30.39

------------------------------Saturation indices-------------------------------

  Phase               SI** log IAP   log K(298 K,  10 atm)

  CH4(g)         -115.35   -118.15   -2.81  CH4
  CO2(g)            0.98     -0.50   -1.47  CO2	 Pressure  10.0 atm, phi 0.945
  H2(g)           -35.56    -38.66   -3.10  H2
  H2O(g)           -1.50     -0.00    1.50  H2O
  O2(g)           -12.15    -15.04   -2.90  O2

**For a gas, SI = log10(fugacity). Fugacity = pressure * phi / 1 atm.
  For ideal gases, phi = 1.

------------------
End of simulation.
------------------

------------------------------------
Reading input data for simulation 7.
------------------------------------

