WARNING: Database file from DATABASE keyword is used; command line argument ignored.
   Input file: gas_fix_P
  Output file: gas_fix_P.out
Database file: ../database/phreeqc.dat

------------------
Reading data base.
------------------

	SOLUTION_MASTER_SPECIES
	SOLUTION_SPECIES
	PHASES
	GAS_BINARY_PARAMETERS
	EXCHANGE_MASTER_SPECIES
	EXCHANGE_SPECIES
	SURFACE_MASTER_SPECIES
	SURFACE_SPECIES
	MEAN_GAMMAS
	RATES
	END
------------------------------------
Reading input data for simulation 1.
------------------------------------

	DATABASE ../database/phreeqc.dat
	SELECTED_OUTPUT 101
	    file                 gas_fix_P_101.sel
	USER_PUNCH 101
	    headings Mu SC
	    start
	10 PUNCH STR_F$(MU, 20, 12)
	20 PUNCH STR_F$(SC, 20, 10)
	    end
	SOLUTION 1
	  pH 3 charge
	GAS_PHASE 1
	    fixed_pressure
	    pressure 950.9
	    N2(g) 11
	    CO2(g) 470
	    H2O(g) 0.0
	REACTION
	 CO2 1
	 2*2
	INCREMENTAL_REACTIONS true
	END
-------------------------------------------
Beginning of initial solution calculations.
-------------------------------------------

Initial solution 1.	

-----------------------------Solution composition------------------------------

	Elements           Molality       Moles

	Pure water     

----------------------------Description of solution----------------------------

                                       pH  =   6.997      Charge balance
                                       pe  =   4.000    
      Specific Conductance (µS/cm,  25°C)  = 0
                          Density (g/cm³)  =   0.99704
                               Volume (L)  =   1.00297
                        Viscosity (mPa s)  =   0.89002
                        Activity of water  =   1.000
                 Ionic strength (mol/kgw)  =   1.006e-07
                       Mass of water (kg)  =   1.000e+00
                 Total alkalinity (eq/kg)  =   1.343e-16
                         Temperature (°C)  =  25.00
                  Electrical balance (eq)  =  -1.343e-16
 Percent error, 100*(Cat-|An|)/(Cat+|An|)  =  -0.00
                               Iterations  =  12
                                  Total H  = 1.110124e+02
                                  Total O  = 5.550622e+01

----------------------------Distribution of species----------------------------

                                               Log       Log       Log    mole V
   Species          Molality    Activity  Molality  Activity     Gamma   cm³/mol

   OH-             1.006e-07   1.006e-07    -6.997    -6.997    -0.000     -4.14
   H+              1.006e-07   1.006e-07    -6.997    -6.997    -0.000      0.00
   H2O             5.551e+01   1.000e+00     1.744    -0.000     0.000     18.07
H(0)          1.433e-25
   H2              7.166e-26   7.166e-26   -25.145   -25.145     0.000     14.99
O(0)          0.000e+00
   O2              0.000e+00   0.000e+00   -42.073   -42.073     0.000     30.40

------------------------------Saturation indices-------------------------------

  Phase               SI** log IAP   log K(298 K,   1 atm)

  H2(g)           -22.05    -25.14   -3.10  H2
  H2O(g)           -1.50     -0.00    1.50  H2O
  O2(g)           -39.18    -42.07   -2.89  O2

**For a gas, SI = log10(fugacity). Fugacity = pressure * phi / 1 atm.
  For ideal gases, phi = 1.

-----------------------------------------
Beginning of batch-reaction calculations.
-----------------------------------------

Reaction step 1.

Using solution 1.	
Using gas phase 1.	
Using reaction 1.	

Reaction 1.	

	  2.000e+00 moles of the following reaction have been added:

	                 Relative
	Reactant            moles

	CO2                  1.00000

	                 Relative
	Element             moles
	C                    1.00000
	O                    2.00000

-----------------------------------Gas phase-----------------------------------

Total pressure: 950.90      atmospheres          (Peng-Robinson calculation)
    Gas volume:   9.02e-01 liters
  Molar volume:   3.65e-02 liters/mole
   P * Vm / RT:  1.41854  (Compressibility Factor Z) 

                                                        Moles in gas
                                            ----------------------------------
Component         log P           P    phi     Initial       Final       Delta

CO2(g)             2.97   9.263e+02  0.206   2.392e+01   2.408e+01   1.633e-01
H2O(g)             0.56   3.607e+00  0.017   0.000e+00   9.375e-02   9.375e-02
N2(g)              1.32   2.094e+01  3.421   5.597e-01   5.444e-01  -1.530e-02

-----------------------------Solution composition------------------------------

	Elements           Molality       Moles

	C                 1.840e+00   1.837e+00
	N                 3.066e-02   3.061e-02

----------------------------Description of solution----------------------------

                                       pH  =   2.856      Charge balance
                                       pe  =  14.550      Adjusted to redox equilibrium
      Specific Conductance (µS/cm,  25°C)  = 517
                          Density (g/cm³)  =   1.05248
                               Volume (L)  =   1.02575
                        Viscosity (mPa s)  =   1.01930
                        Activity of water  =   0.969
                 Ionic strength (mol/kgw)  =   1.449e-03
                       Mass of water (kg)  =   9.983e-01
                 Total alkalinity (eq/kg)  =   1.938e-15
                       Total CO2 (mol/kg)  =   1.840e+00
                         Temperature (°C)  =  25.00
                           Pressure (atm)  = 950.90
                  Electrical balance (eq)  =  -1.331e-14
 Percent error, 100*(Cat-|An|)/(Cat+|An|)  =  -0.00
                               Iterations  =  46
                                  Total H  = 1.108249e+02
                                  Total O  = 5.908594e+01

----------------------------Distribution of species----------------------------

                                               Log       Log       Log    mole V
   Species          Molality    Activity  Molality  Activity     Gamma   cm³/mol

   H+              1.449e-03   1.394e-03    -2.839    -2.856    -0.017      0.00
   OH-             1.519e-11   1.458e-11   -10.819   -10.836    -0.018     -1.38
   H2O             5.551e+01   9.693e-01     1.744    -0.014     0.000     17.38
C(-4)         0.000e+00
   CH4             0.000e+00   0.000e+00  -115.213  -115.213     0.000     36.35
C(4)          1.840e+00
   CO2             1.737e+00   1.737e+00     0.240     0.240     0.000     33.94
   (CO2)2          5.069e-02   5.070e-02    -1.295    -1.295     0.000     67.04
   HCO3-           1.449e-03   1.392e-03    -2.839    -2.856    -0.017     26.80
   CO3-2           1.440e-10   1.227e-10    -9.842    -9.911    -0.070      1.99
H(0)          1.200e-38
   H2              6.002e-39   6.004e-39   -38.222   -38.222     0.000     15.46
N(-3)         0.000e+00
   NH4+            0.000e+00   0.000e+00   -40.505   -40.523    -0.018     19.42
   NH3             0.000e+00   0.000e+00   -47.017   -47.017     0.000     25.69
N(0)          3.066e-02
   N2              1.533e-02   1.533e-02    -1.814    -1.814     0.000     29.29
N(3)          3.974e-21
   NO2-            3.974e-21   3.814e-21   -20.401   -20.419    -0.018     24.87
N(5)          1.139e-14
   NO3-            1.139e-14   1.093e-14   -13.943   -13.961    -0.018     28.61
O(0)          8.404e-17
   O2              4.202e-17   4.204e-17   -16.377   -16.376     0.000     29.33

------------------------------Saturation indices-------------------------------

  Phase               SI** log IAP   log K(298 K, 951 atm)

  CH4(g)         -111.80   -115.21   -3.41  CH4
  CO2(g)            2.28      0.24   -2.04  CO2	 Pressure 926.3 atm, phi 0.206
  H2(g)           -34.86    -38.22   -3.36  H2
  H2O(g)           -1.22     -0.01    1.21  H2O	 Pressure   3.6 atm, phi 0.017
  N2(g)             1.86     -1.81   -3.67  N2	 Pressure  20.9 atm, phi 3.421
  NH3(g)          -48.38    -47.02    1.36  NH3
  O2(g)           -12.99    -16.38   -3.39  O2

**For a gas, SI = log10(fugacity). Fugacity = pressure * phi / 1 atm.
  For ideal gases, phi = 1.

Reaction step 2.

Using solution 1.	
Using gas phase 1.	
Using reaction 1.	

Reaction 1.	

	  2.000e+00 moles of the following reaction have been added:

	                 Relative
	Reactant            moles

	CO2                  1.00000

	                 Relative
	Element             moles
	C                    1.00000
	O                    2.00000

-----------------------------------Gas phase-----------------------------------

Total pressure: 950.90      atmospheres          (Peng-Robinson calculation)
    Gas volume:   9.75e-01 liters
  Molar volume:   3.65e-02 liters/mole
   P * Vm / RT:  1.41818  (Compressibility Factor Z) 

                                                        Moles in gas
                                            ----------------------------------
Component         log P           P    phi     Initial       Final       Delta

CO2(g)             2.97   9.279e+02  0.206   2.408e+01   2.608e+01   1.997e+00
H2O(g)             0.56   3.626e+00  0.016   9.375e-02   1.019e-01   8.137e-03
N2(g)              1.29   1.941e+01  3.430   5.444e-01   5.455e-01   1.083e-03

-----------------------------Solution composition------------------------------

	Elements           Molality       Moles

	C                 1.843e+00   1.840e+00
	N                 2.849e-02   2.844e-02

----------------------------Description of solution----------------------------

                                       pH  =   2.855      Charge balance
                                       pe  =  14.558      Adjusted to redox equilibrium
      Specific Conductance (µS/cm,  25°C)  = 517
                          Density (g/cm³)  =   1.05251
                               Volume (L)  =   1.02567
                        Viscosity (mPa s)  =   1.01951
                        Activity of water  =   0.969
                 Ionic strength (mol/kgw)  =   1.450e-03
                       Mass of water (kg)  =   9.981e-01
                 Total alkalinity (eq/kg)  =   2.207e-15
                       Total CO2 (mol/kg)  =   1.843e+00
                         Temperature (°C)  =  25.00
                           Pressure (atm)  = 950.90
                  Electrical balance (eq)  =  -1.417e-14
 Percent error, 100*(Cat-|An|)/(Cat+|An|)  =  -0.00
                               Iterations  =  10
                                  Total H  = 1.108087e+02
                                  Total O  = 5.908344e+01

----------------------------Distribution of species----------------------------

                                               Log       Log       Log    mole V
   Species          Molality    Activity  Molality  Activity     Gamma   cm³/mol

   H+              1.450e-03   1.395e-03    -2.839    -2.855    -0.017      0.00
   OH-             1.518e-11   1.456e-11   -10.819   -10.837    -0.018     -1.38
   H2O             5.551e+01   9.693e-01     1.744    -0.014     0.000     17.38
C(-4)         0.000e+00
   CH4             0.000e+00   0.000e+00  -115.274  -115.274     0.000     36.35
C(4)          1.843e+00
   CO2             1.740e+00   1.740e+00     0.241     0.241     0.000     33.94
   (CO2)2          5.085e-02   5.086e-02    -1.294    -1.294     0.000     67.04
   HCO3-           1.450e-03   1.393e-03    -2.839    -2.856    -0.017     26.80
   CO3-2           1.440e-10   1.227e-10    -9.842    -9.911    -0.070      1.99
H(0)          1.159e-38
   H2              5.793e-39   5.795e-39   -38.237   -38.237     0.000     15.46
N(-3)         0.000e+00
   NH4+            0.000e+00   0.000e+00   -40.543   -40.561    -0.018     19.42
   NH3             0.000e+00   0.000e+00   -47.056   -47.056     0.000     25.69
N(0)          2.849e-02
   N2              1.425e-02   1.425e-02    -1.846    -1.846     0.000     29.29
N(3)          4.037e-21
   NO2-            4.037e-21   3.874e-21   -20.394   -20.412    -0.018     24.87
N(5)          1.199e-14
   NO3-            1.199e-14   1.151e-14   -13.921   -13.939    -0.018     28.61
O(0)          9.022e-17
   O2              4.511e-17   4.513e-17   -16.346   -16.346     0.000     29.33

------------------------------Saturation indices-------------------------------

  Phase               SI** log IAP   log K(298 K, 951 atm)

  CH4(g)         -111.86   -115.27   -3.41  CH4
  CO2(g)            2.28      0.24   -2.04  CO2	 Pressure 927.9 atm, phi 0.206
  H2(g)           -34.88    -38.24   -3.36  H2
  H2O(g)           -1.22     -0.01    1.21  H2O	 Pressure   3.6 atm, phi 0.016
  N2(g)             1.82     -1.85   -3.67  N2	 Pressure  19.4 atm, phi 3.430
  NH3(g)          -48.42    -47.06    1.36  NH3
  O2(g)           -12.96    -16.35   -3.39  O2

**For a gas, SI = log10(fugacity). Fugacity = pressure * phi / 1 atm.
  For ideal gases, phi = 1.

------------------
End of simulation.
------------------

------------------------------------
Reading input data for simulation 2.
------------------------------------

