WARNING: Database file from DATABASE keyword is used; command line argument ignored.
   Input file: gfw
  Output file: gfw.out
Database file: ../database/phreeqc.dat

------------------
Reading data base.
------------------

	SOLUTION_MASTER_SPECIES
	SOLUTION_SPECIES
	PHASES
	GAS_BINARY_PARAMETERS
	EXCHANGE_MASTER_SPECIES
	EXCHANGE_SPECIES
	SURFACE_MASTER_SPECIES
	SURFACE_SPECIES
	MEAN_GAMMAS
	RATES
	END
------------------------------------
Reading input data for simulation 1.
------------------------------------

	DATABASE ../database/phreeqc.dat
	SELECTED_OUTPUT 101
	    file                 gfw_101.sel
	USER_PUNCH 101
	    headings Mu SC
	    start
	10 PUNCH STR_F$(MU, 20, 12)
	20 PUNCH STR_F$(SC, 20, 10)
	    end
	SOLUTION 1
		Alkalinity  10
		Na	1000
		Cl	1000
		Fe	100
		S(6)    100
		S(-2)   1
		water 0.5
	USER_PRINT
	10 PRINT "GFW Na          ", GFW("Na")
	20 PRINT "GFW Cl          ", GFW("Cl")
	30 PRINT "GFW NaCl        ", GFW("NaCl")
	40 PRINT "Solution volume ", SOLN_VOL
	END
-------------------------------------------
Beginning of initial solution calculations.
-------------------------------------------

Initial solution 1.	

----------------------------------User print-----------------------------------

GFW Na             2.2990e+01 
GFW Cl             3.5453e+01 
GFW NaCl           5.8443e+01 
Solution volume    5.1128e-01 

-----------------------------Solution composition------------------------------

	Elements           Molality       Moles

	Alkalinity        1.000e-02   5.000e-03
	Cl                1.000e+00   5.000e-01
	Fe                1.000e-01   5.000e-02
	Na                1.000e+00   5.000e-01
	S(-2)             1.000e-03   5.000e-04
	S(6)              1.000e-01   5.000e-02

----------------------------Description of solution----------------------------

                                       pH  =   7.000    
                                       pe  =   4.000    
      Specific Conductance (µS/cm,  25°C)  = 88951
                          Density (g/cm³)  =   1.05063
                               Volume (L)  =   0.51128
                        Viscosity (mPa s)  =   0.98599
                        Activity of water  =   0.964
                 Ionic strength (mol/kgw)  =   1.222e+00
                       Mass of water (kg)  =   5.000e-01
                    Total carbon (mol/kg)  =   6.687e-03
                       Total CO2 (mol/kg)  =   6.687e-03
                         Temperature (°C)  =  25.00
                  Electrical balance (eq)  =  -8.106e-03
 Percent error, 100*(Cat-|An|)/(Cat+|An|)  =  -0.73
                               Iterations  =   9
                                  Total H  = 5.551723e+01
                                  Total O  = 2.797041e+01

---------------------------------Redox couples---------------------------------

	Redox couple             pe  Eh (volts)

	S(-2)/S(6)          -3.2987     -0.1951

----------------------------Distribution of species----------------------------

                                               Log       Log       Log    mole V
   Species          Molality    Activity  Molality  Activity     Gamma   cm³/mol

   OH-             1.728e-07   9.755e-08    -6.763    -7.011    -0.248     -1.76
   H+              1.355e-07   1.000e-07    -6.868    -7.000    -0.132      0.00
   H2O             5.551e+01   9.638e-01     1.744    -0.016     0.000     18.07
C(4)          6.687e-03
   FeHCO3+         2.902e-03   2.409e-03    -2.537    -2.618    -0.081     (0)  
   HCO3-           2.795e-03   1.843e-03    -2.554    -2.734    -0.181     30.02
   NaHCO3          4.231e-04   6.470e-04    -3.374    -3.189     0.184     17.66
   CO2             3.571e-04   4.300e-04    -3.447    -3.367     0.081     34.79
   FeCO3           2.046e-04   2.710e-04    -3.689    -3.567     0.122     (0)  
   CO3-2           4.993e-06   8.644e-07    -5.302    -6.063    -0.762      0.83
   (CO2)2          2.496e-09   3.006e-09    -8.603    -8.522     0.081     68.75
Cl            1.000e+00
   Cl-             9.871e-01   5.915e-01    -0.006    -0.228    -0.222     19.03
   FeCl+           1.286e-02   1.067e-02    -1.891    -1.972    -0.081     (0)  
   HCl             6.154e-09   2.038e-08    -8.211    -7.691     0.520     20.36
   FeCl+2          1.410e-09   2.230e-10    -8.851    -9.652    -0.801     (0)  
   FeCl2+          9.342e-10   5.892e-10    -9.030    -9.230    -0.200     (0)  
   FeCl3           2.630e-11   3.485e-11   -10.580   -10.458     0.122     (0)  
Fe(2)         9.379e-02
   Fe+2            6.695e-02   1.307e-02    -1.174    -1.884    -0.709    -20.30
   FeCl+           1.286e-02   1.067e-02    -1.891    -1.972    -0.081     (0)  
   FeSO4           1.032e-02   1.367e-02    -1.986    -1.864     0.122     30.28
   FeHCO3+         2.902e-03   2.409e-03    -2.537    -2.618    -0.081     (0)  
   Fe(HS)2         4.900e-04   6.492e-04    -3.310    -3.188     0.122     (0)  
   FeCO3           2.046e-04   2.710e-04    -3.689    -3.567     0.122     (0)  
   FeOH+           6.317e-05   3.984e-05    -4.199    -4.400    -0.200     (0)  
   Fe(HS)3-        6.356e-07   5.277e-07    -6.197    -6.278    -0.081     (0)  
   FeHSO4+         1.082e-08   8.985e-09    -7.966    -8.046    -0.081     (0)  
   Fe(OH)2         2.467e-09   3.268e-09    -8.608    -8.486     0.122     (0)  
   Fe(OH)3-        1.856e-12   1.170e-12   -11.732   -11.932    -0.200     (0)  
Fe(3)         6.213e-03
   Fe(OH)2+        3.843e-03   2.479e-03    -2.415    -2.606    -0.190     (0)  
   Fe(OH)3         2.323e-03   3.078e-03    -2.634    -2.512     0.122     (0)  
   Fe(OH)4-        4.194e-05   2.705e-05    -4.377    -4.568    -0.190     (0)  
   FeOH+2          4.912e-06   7.768e-07    -5.309    -6.110    -0.801     (0)  
   FeCl+2          1.410e-09   2.230e-10    -8.851    -9.652    -0.801     (0)  
   FeSO4+          1.276e-09   8.049e-10    -8.894    -9.094    -0.200     (0)  
   FeCl2+          9.342e-10   5.892e-10    -9.030    -9.230    -0.200     (0)  
   Fe3(OH)4+5      8.825e-10   8.411e-12    -9.054   -11.075    -2.021     (0)  
   Fe2(OH)2+4      3.191e-10   1.624e-11    -9.496   -10.789    -1.293     (0)  
   Fe+3            1.928e-10   1.248e-11    -9.715   -10.904    -1.189     (0)  
   Fe(SO4)2-       1.247e-10   1.035e-10    -9.904    -9.985    -0.081     (0)  
   FeCl3           2.630e-11   3.485e-11   -10.580   -10.458     0.122     (0)  
   FeHSO4+2        4.538e-16   2.155e-16   -15.343   -15.666    -0.323     (0)  
H(0)          1.054e-25
   H2              5.269e-26   7.079e-26   -25.278   -25.150     0.128     14.99
Na            1.000e+00
   Na+             9.515e-01   7.102e-01    -0.022    -0.149    -0.127     -0.19
   NaSO4-          4.806e-02   3.669e-02    -1.318    -1.435    -0.117     23.72
   NaHCO3          4.231e-04   6.470e-04    -3.374    -3.189     0.184     17.66
   Na2SO4          9.905e-06   1.271e-05    -5.004    -4.896     0.108     47.96
O(0)          0.000e+00
   O2              0.000e+00   0.000e+00   -42.217   -42.095     0.122     30.40
S(-2)         1.000e-03
   Fe(HS)2         4.900e-04   6.492e-04    -3.310    -3.188     0.122     (0)  
   HS-             1.322e-05   7.465e-06    -4.879    -5.127    -0.248     21.62
   H2S             4.926e-06   6.527e-06    -5.307    -5.185     0.122     36.27
   Fe(HS)3-        6.356e-07   5.277e-07    -6.197    -6.278    -0.081     (0)  
   S-2             5.701e-11   9.016e-12   -10.244   -11.045    -0.801     (0)  
   (H2S)2          1.694e-12   2.245e-12   -11.771   -11.649     0.122     30.09
S(6)          1.000e-01
   NaSO4-          4.806e-02   3.669e-02    -1.318    -1.435    -0.117     23.72
   SO4-2           4.161e-02   5.880e-03    -1.381    -2.231    -0.850     18.81
   FeSO4           1.032e-02   1.367e-02    -1.986    -1.864     0.122     30.28
   Na2SO4          9.905e-06   1.271e-05    -5.004    -4.896     0.108     47.96
   HSO4-           6.887e-08   5.717e-08    -7.162    -7.243    -0.081     41.18
   FeHSO4+         1.082e-08   8.985e-09    -7.966    -8.046    -0.081     (0)  
   FeSO4+          1.276e-09   8.049e-10    -8.894    -9.094    -0.200     (0)  
   Fe(SO4)2-       1.247e-10   1.035e-10    -9.904    -9.985    -0.081     (0)  
   FeHSO4+2        4.538e-16   2.155e-16   -15.343   -15.666    -0.323     (0)  

------------------------------Saturation indices-------------------------------

  Phase               SI** log IAP   log K(298 K,   1 atm)

  CO2(g)           -1.90     -3.37   -1.47  CO2
  Fe(OH)3(a)        5.16     10.05    4.89  Fe(OH)3
  FeS(ppt)          3.90     -0.01   -3.92  FeS
  Goethite         11.06     10.06   -1.00  FeOOH
  H2(g)           -22.05    -25.15   -3.10  H2
  H2O(g)           -1.52     -0.02    1.50  H2O
  H2S(g)           -4.19    -12.13   -7.94  H2S
  Halite           -1.95     -0.38    1.57  NaCl
  Hematite         24.15     20.14   -4.01  Fe2O3
  Mackinawite       4.64     -0.01   -4.65  FeS
  Melanterite      -2.02     -4.23   -2.21  FeSO4:7H2O
  Mirabilite       -1.98     -2.69   -0.71  Na2SO4:10H2O
  O2(g)           -39.20    -42.09   -2.89  O2
  Pyrite           28.34      9.86  -18.48  FeS2
  Siderite          2.94     -7.95  -10.89  FeCO3
  Sulfur           11.93     16.81    4.88  S
  Thenardite       -3.18     -2.53    0.65  Na2SO4

**For a gas, SI = log10(fugacity). Fugacity = pressure * phi / 1 atm.
  For ideal gases, phi = 1.

------------------
End of simulation.
------------------

------------------------------------
Reading input data for simulation 2.
------------------------------------

