WARNING: Database file from DATABASE keyword is used; command line argument ignored.
   Input file: H2
  Output file: H2.out
Database file: ../database/phreeqc.dat

------------------
Reading data base.
------------------

	SOLUTION_MASTER_SPECIES
	SOLUTION_SPECIES
	PHASES
	GAS_BINARY_PARAMETERS
	EXCHANGE_MASTER_SPECIES
	EXCHANGE_SPECIES
	SURFACE_MASTER_SPECIES
	SURFACE_SPECIES
	MEAN_GAMMAS
	RATES
	END
------------------------------------
Reading input data for simulation 1.
------------------------------------

	DATABASE ../database/phreeqc.dat
	SELECTED_OUTPUT 101
	    file                 H2_101.sel
	USER_PUNCH 101
	    headings Mu SC
	    start
	10 PUNCH STR_F$(MU, 20, 12)
	20 PUNCH STR_F$(SC, 20, 10)
	    end
	SOLUTION 1
	 pH 7 charge
	SOLUTION 2
	 pH 7 charge
	 Na 1e3
	 Cl 1e3
	SOLUTION 3
	 pH 7 charge
	 Na 3e3
	 Cl 3e3
	SOLUTION 5
	 pH 7 charge
	 Na 5e3
	 Cl 5e3
	GAS_PHASE
	fixed_volume
	 volume 1e-4 
	Hdg(g) 0
	H2O(g) 0
	END
-------------------------------------------
Beginning of initial solution calculations.
-------------------------------------------

Initial solution 1.	

-----------------------------Solution composition------------------------------

	Elements           Molality       Moles

	Pure water     

----------------------------Description of solution----------------------------

                                       pH  =   6.997      Charge balance
                                       pe  =   4.000    
      Specific Conductance (ÂµS/cm,  25Â°C)  = 0
                          Density (g/cmÂł)  =   0.99704
                               Volume (L)  =   1.00297
                        Viscosity (mPa s)  =   0.89002
                        Activity of water  =   1.000
                 Ionic strength (mol/kgw)  =   1.006e-07
                       Mass of water (kg)  =   1.000e+00
                 Total alkalinity (eq/kg)  =   3.040e-17
                         Temperature (Â°C)  =  25.00
                  Electrical balance (eq)  =  -3.040e-17
 Percent error, 100*(Cat-|An|)/(Cat+|An|)  =  -0.00
                               Iterations  =   2
                                  Total H  = 1.110124e+02
                                  Total O  = 5.550622e+01

----------------------------Distribution of species----------------------------

                                               Log       Log       Log    mole V
   Species          Molality    Activity  Molality  Activity     Gamma   cmÂł/mol

   OH-             1.006e-07   1.006e-07    -6.997    -6.997    -0.000     -4.14
   H+              1.006e-07   1.006e-07    -6.997    -6.997    -0.000      0.00
   H2O             5.551e+01   1.000e+00     1.744    -0.000     0.000     18.07
H(0)          1.433e-25
   H2              7.166e-26   7.166e-26   -25.145   -25.145     0.000     14.99
O(0)          0.000e+00
   O2              0.000e+00   0.000e+00   -42.073   -42.073     0.000     30.40

------------------------------Saturation indices-------------------------------

  Phase               SI** log IAP   log K(298 K,   1 atm)

  H2(g)           -22.05    -25.14   -3.10  H2
  H2O(g)           -1.50     -0.00    1.50  H2O
  O2(g)           -39.18    -42.07   -2.89  O2

**For a gas, SI = log10(fugacity). Fugacity = pressure * phi / 1 atm.
  For ideal gases, phi = 1.

Initial solution 2.	

-----------------------------Solution composition------------------------------

	Elements           Molality       Moles

	Cl                1.000e+00   1.000e+00
	Na                1.000e+00   1.000e+00

----------------------------Description of solution----------------------------

                                       pH  =   6.963      Charge balance
                                       pe  =   4.000    
      Specific Conductance (ÂµS/cm,  25Â°C)  = 84318
                          Density (g/cmÂł)  =   1.03606
                               Volume (L)  =   1.02160
                        Viscosity (mPa s)  =   0.97321
                        Activity of water  =   0.966
                 Ionic strength (mol/kgw)  =   1.000e+00
                       Mass of water (kg)  =   1.000e+00
                 Total alkalinity (eq/kg)  =   5.405e-17
                         Temperature (Â°C)  =  25.00
                  Electrical balance (eq)  =   1.328e-15
 Percent error, 100*(Cat-|An|)/(Cat+|An|)  =   0.00
                               Iterations  =   4 (6 overall)
                                  Total H  = 1.110124e+02
                                  Total O  = 5.550622e+01

----------------------------Distribution of species----------------------------

                                               Log       Log       Log    mole V
   Species          Molality    Activity  Molality  Activity     Gamma   cmÂł/mol

   OH-             1.551e-07   8.980e-08    -6.809    -7.047    -0.237     -2.10
   H+              1.465e-07   1.089e-07    -6.834    -6.963    -0.129      0.00
   H2O             5.551e+01   9.660e-01     1.744    -0.015     0.000     18.07
Cl            1.000e+00
   Cl-             1.000e+00   6.087e-01    -0.000    -0.216    -0.216     18.94
   HCl             8.568e-09   2.283e-08    -8.067    -7.642     0.426     20.36
H(0)          1.318e-25
   H2              6.590e-26   8.392e-26   -25.181   -25.076     0.105     14.99
Na            1.000e+00
   Na+             1.000e+00   7.312e-01     0.000    -0.136    -0.136     -0.31
O(0)          0.000e+00
   O2              0.000e+00   0.000e+00   -42.340   -42.240     0.100     30.40

------------------------------Saturation indices-------------------------------

  Phase               SI** log IAP   log K(298 K,   1 atm)

  H2(g)           -21.98    -25.08   -3.10  H2
  H2O(g)           -1.52     -0.02    1.50  H2O
  Halite           -1.92     -0.35    1.57  NaCl
  O2(g)           -39.35    -42.24   -2.89  O2

**For a gas, SI = log10(fugacity). Fugacity = pressure * phi / 1 atm.
  For ideal gases, phi = 1.

Initial solution 3.	

-----------------------------Solution composition------------------------------

	Elements           Molality       Moles

	Cl                3.000e+00   3.000e+00
	Na                3.000e+00   3.000e+00

----------------------------Description of solution----------------------------

                                       pH  =   6.950      Charge balance
                                       pe  =   4.000    
      Specific Conductance (ÂµS/cm,  25Â°C)  = 189438
                          Density (g/cmÂł)  =   1.10562
                               Volume (L)  =   1.06305
                        Viscosity (mPa s)  =   1.20368
                        Activity of water  =   0.898
                 Ionic strength (mol/kgw)  =   3.000e+00
                       Mass of water (kg)  =   1.000e+00
                 Total alkalinity (eq/kg)  =  -2.493e-12
                         Temperature (Â°C)  =  25.00
                  Electrical balance (eq)  =   4.054e-09
 Percent error, 100*(Cat-|An|)/(Cat+|An|)  =   0.00
                               Iterations  =   3 (9 overall)
                                  Total H  = 1.110124e+02
                                  Total O  = 5.550622e+01

----------------------------Distribution of species----------------------------

                                               Log       Log       Log    mole V
   Species          Molality    Activity  Molality  Activity     Gamma   cmÂł/mol

   OH-             1.599e-07   8.103e-08    -6.796    -7.091    -0.295      0.77
   H+              1.564e-07   1.122e-07    -6.806    -6.950    -0.144      0.00
   H2O             5.551e+01   8.980e-01     1.744    -0.047     0.000     18.07
Cl            3.000e+00
   Cl-             3.000e+00   1.738e+00     0.477     0.240    -0.237     19.55
   HCl             3.550e-09   6.714e-08    -8.450    -7.173     1.277     20.36
H(0)          8.626e-26
   H2              4.313e-26   8.908e-26   -25.365   -25.050     0.315     14.99
Na            3.000e+00
   Na+             3.000e+00   2.865e+00     0.477     0.457    -0.020      0.48
O(0)          0.000e+00
   O2              0.000e+00   0.000e+00   -42.656   -42.356     0.300     30.40

------------------------------Saturation indices-------------------------------

  Phase               SI** log IAP   log K(298 K,   1 atm)

  H2(g)           -21.95    -25.05   -3.10  H2
  H2O(g)           -1.55     -0.05    1.50  H2O
  Halite           -0.87      0.70    1.57  NaCl
  O2(g)           -39.46    -42.36   -2.89  O2

**For a gas, SI = log10(fugacity). Fugacity = pressure * phi / 1 atm.
  For ideal gases, phi = 1.

Initial solution 5.	

-----------------------------Solution composition------------------------------

	Elements           Molality       Moles

	Cl                5.000e+00   5.000e+00
	Na                5.000e+00   5.000e+00

----------------------------Description of solution----------------------------

                                       pH  =   6.954      Charge balance
                                       pe  =   4.000    
      Specific Conductance (ÂµS/cm,  25Â°C)  = 239112
                          Density (g/cmÂł)  =   1.16651
                               Volume (L)  =   1.10776
                        Viscosity (mPa s)  =   1.53299
                        Activity of water  =   0.830
                 Ionic strength (mol/kgw)  =   5.000e+00
                       Mass of water (kg)  =   1.000e+00
                 Total alkalinity (eq/kg)  =  -1.434e-15
                         Temperature (Â°C)  =  25.00
                  Electrical balance (eq)  =   8.646e-09
 Percent error, 100*(Cat-|An|)/(Cat+|An|)  =   0.00
                               Iterations  =   4 (13 overall)
                                  Total H  = 1.110124e+02
                                  Total O  = 5.550622e+01

----------------------------Distribution of species----------------------------

                                               Log       Log       Log    mole V
   Species          Molality    Activity  Molality  Activity     Gamma   cmÂł/mol

   OH-             1.577e-07   7.561e-08    -6.802    -7.121    -0.319      3.42
   H+              1.569e-07   1.111e-07    -6.804    -6.954    -0.150      0.00
   H2O             5.551e+01   8.300e-01     1.744    -0.081     0.000     18.07
Cl            5.000e+00
   Cl-             5.000e+00   2.971e+00     0.699     0.473    -0.226     19.94
   HCl             8.469e-10   1.137e-07    -9.072    -6.944     2.128     20.36
H(0)          5.219e-26
   H2              2.609e-26   8.740e-26   -25.583   -25.058     0.525     14.99
Na            5.000e+00
   Na+             5.000e+00   6.662e+00     0.699     0.824     0.125      1.02
O(0)          0.000e+00
   O2              0.000e+00   0.000e+00   -42.907   -42.407     0.500     30.40

------------------------------Saturation indices-------------------------------

  Phase               SI** log IAP   log K(298 K,   1 atm)

  H2(g)           -21.96    -25.06   -3.10  H2
  H2O(g)           -1.58     -0.08    1.50  H2O
  Halite           -0.27      1.30    1.57  NaCl
  O2(g)           -39.52    -42.41   -2.89  O2

**For a gas, SI = log10(fugacity). Fugacity = pressure * phi / 1 atm.
  For ideal gases, phi = 1.

-----------------------------------------
Beginning of batch-reaction calculations.
-----------------------------------------

Reaction step 1.

WARNING: Element Hdg is contained in gas Hdg(g) (which has 0.0 mass),
but is not in solution or other phases.
Using solution 1.	
Using gas phase 1.	

-----------------------------------Gas phase-----------------------------------

Total pressure:  0.03      atmospheres          (Peng-Robinson calculation)
    Gas volume:   1.00e-04 liters
  Molar volume:   7.95e+02 liters/mole
   P * Vm / RT:  0.99952  (Compressibility Factor Z) 

                                                        Moles in gas
                                            ----------------------------------
Component         log P           P    phi     Initial       Final       Delta

H2O(g)            -1.50   3.143e-02  1.000   0.000e+00   1.285e-07   1.285e-07
Hdg(g)           -99.99   0.000e+00  1.000   0.000e+00   0.000e+00   0.000e+00

-----------------------------Solution composition------------------------------

	Elements           Molality       Moles

	Pure water     

----------------------------Description of solution----------------------------

                                       pH  =   6.997      Charge balance
                                       pe  =  -0.163      Adjusted to redox equilibrium
      Specific Conductance (ÂµS/cm,  25Â°C)  = 0
                          Density (g/cmÂł)  =   0.99700
                               Volume (L)  =   1.00301
                        Viscosity (mPa s)  =   0.89004
                        Activity of water  =   1.000
                 Ionic strength (mol/kgw)  =   1.006e-07
                       Mass of water (kg)  =   1.000e+00
                 Total alkalinity (eq/kg)  =   3.040e-17
                         Temperature (Â°C)  =  25.00
                           Pressure (atm)  =  0.03
                  Electrical balance (eq)  =  -3.040e-17
 Percent error, 100*(Cat-|An|)/(Cat+|An|)  =  -0.00
                               Iterations  =  10
                                  Total H  = 1.110124e+02
                                  Total O  = 5.550622e+01

----------------------------Distribution of species----------------------------

                                               Log       Log       Log    mole V
   Species          Molality    Activity  Molality  Activity     Gamma   cmÂł/mol

   OH-             1.006e-07   1.006e-07    -6.997    -6.997    -0.000     -4.14
   H+              1.006e-07   1.006e-07    -6.997    -6.997    -0.000      0.00
   H2O             5.551e+01   1.000e+00     1.744    -0.000     0.000     18.07
H(0)          3.040e-17
   H2              1.520e-17   1.520e-17   -16.818   -16.818     0.000     14.99
O(0)          0.000e+00
   O2              0.000e+00   0.000e+00   -58.726   -58.726     0.000     30.40

------------------------------Saturation indices-------------------------------

  Phase               SI** log IAP   log K(298 K,   0 atm)

  H2(g)           -13.72    -16.82   -3.10  H2
  H2O(g)           -1.50     -0.00    1.50  H2O	 Pressure   0.0 atm, phi 1.000
  O2(g)           -55.83    -58.73   -2.89  O2

**For a gas, SI = log10(fugacity). Fugacity = pressure * phi / 1 atm.
  For ideal gases, phi = 1.

------------------
End of simulation.
------------------

------------------------------------
Reading input data for simulation 2.
------------------------------------

	INCREMENTAL_REACTIONS true
	REACTION 1
	Hdg
	 0 10*0.12
	REACTION 2
	Hdg
	 0 10*0.09
	END
------------------
End of simulation.
------------------

------------------------------------
Reading input data for simulation 3.
------------------------------------

	USE solution 1
	 USE reaction 1
	 USE gas_phase 1
	REACTION_TEMPERATURE 1
	 0
	USER_GRAPH 1 Zhu 2022, Table 4
	-axis_titles "P / atm" "H2 / (mol/kgw)"
	-connect_simulations false
	-axis_scale x_axis 0 1100
	-axis_scale y_axis 0 1
	-plot_tsv_file H2.dat
	40 graph_x pressure
	50 graph_y tot("Hdg")
	END
-----------------------------------------
Beginning of batch-reaction calculations.
-----------------------------------------

Reaction step 1.

WARNING: Element Hdg is contained in gas Hdg(g) (which has 0.0 mass),
but is not in solution or other phases.
Using solution 1.	
Using gas phase 1.	
Using temperature 1.	
Using reaction 1.	

Reaction 1.	

	  0.000e+00 moles of the following reaction have been added:

	                 Relative
	Reactant            moles

	Hdg                  1.00000

	                 Relative
	Element             moles
	Hdg                  1.00000

-----------------------------------Gas phase-----------------------------------

Total pressure:  0.01      atmospheres          (Peng-Robinson calculation)
    Gas volume:   1.00e-04 liters
  Molar volume:   3.68e+03 liters/mole
   P * Vm / RT:  0.99988  (Compressibility Factor Z) 

                                                        Moles in gas
                                            ----------------------------------
Component         log P           P    phi     Initial       Final       Delta

H2O(g)            -2.21   6.170e-03  1.000   0.000e+00   2.753e-08   2.753e-08
Hdg(g)           -99.99   0.000e+00  1.000   0.000e+00   0.000e+00   0.000e+00

-----------------------------Solution composition------------------------------

	Elements           Molality       Moles

	Pure water     

----------------------------Description of solution----------------------------

                                       pH  =   7.469      Charge balance
                                       pe  =  -0.576      Adjusted to redox equilibrium
      Specific Conductance (ÂµS/cm,   0Â°C)  = 0
                          Density (g/cmÂł)  =   0.99979
                               Volume (L)  =   1.00021
                        Viscosity (mPa s)  =   1.79200
                        Activity of water  =   1.000
                 Ionic strength (mol/kgw)  =   3.395e-08
                       Mass of water (kg)  =   1.000e+00
                 Total alkalinity (eq/kg)  =   3.150e-17
                         Temperature (Â°C)  =   0.00
                           Pressure (atm)  =  0.01
                  Electrical balance (eq)  =  -3.150e-17
 Percent error, 100*(Cat-|An|)/(Cat+|An|)  =  -0.00
                               Iterations  =   8
                                  Total H  = 1.110124e+02
                                  Total O  = 5.550622e+01

----------------------------Distribution of species----------------------------

                                               Log       Log       Log    mole V
   Species          Molality    Activity  Molality  Activity     Gamma   cmÂł/mol

   OH-             3.395e-08   3.394e-08    -7.469    -7.469    -0.000     -6.21
   H+              3.395e-08   3.394e-08    -7.469    -7.469    -0.000      0.00
   H2O             5.551e+01   1.000e+00     1.744    -0.000     0.000     18.02
H(0)          3.040e-17
   H2              1.520e-17   1.520e-17   -16.818   -16.818     0.000     12.27
O(0)          0.000e+00
   O2              0.000e+00   0.000e+00   -67.835   -67.835     0.000     27.49

------------------------------Saturation indices-------------------------------

  Phase               SI** log IAP   log K(273 K,   0 atm)

  H2(g)           -13.79    -16.82   -3.03  H2
  H2O(g)           -2.21     -0.00    2.21  H2O	 Pressure   0.0 atm, phi 1.000
  O2(g)           -65.18    -67.84   -2.66  O2

**For a gas, SI = log10(fugacity). Fugacity = pressure * phi / 1 atm.
  For ideal gases, phi = 1.

Reaction step 2.

Using solution 1.	
Using gas phase 1.	
Using temperature 1.	
Using reaction 1.	

Reaction 1.	

	  1.200e-01 moles of the following reaction have been added:

	                 Relative
	Reactant            moles

	Hdg                  1.00000

	                 Relative
	Element             moles
	Hdg                  1.00000

-----------------------------------Gas phase-----------------------------------

Total pressure: 131.11      atmospheres          (Peng-Robinson calculation)
    Gas volume:   1.00e-04 liters
  Molar volume:   1.79e-01 liters/mole
   P * Vm / RT:  1.04845  (Compressibility Factor Z) 

                                                        Moles in gas
                                            ----------------------------------
Component         log P           P    phi     Initial       Final       Delta

H2O(g)            -1.76   1.721e-02  0.397   2.753e-08   7.325e-08   4.572e-08
Hdg(g)             2.12   1.311e+02  1.041   0.000e+00   5.578e-04   5.578e-04

-----------------------------Solution composition------------------------------

	Elements           Molality       Moles

	Hdg               1.194e-01   1.194e-01

----------------------------Description of solution----------------------------

                                       pH  =   7.442      Charge balance
                                       pe  =  -1.900      Adjusted to redox equilibrium
      Specific Conductance (ÂµS/cm,   0Â°C)  = 0
                          Density (g/cmÂł)  =   1.00520
                               Volume (L)  =   0.99506
                        Viscosity (mPa s)  =   1.76388
                        Activity of water  =   0.998
                 Ionic strength (mol/kgw)  =   3.618e-08
                       Mass of water (kg)  =   1.000e+00
                 Total alkalinity (eq/kg)  =   3.904e-16
                         Temperature (Â°C)  =   0.00
                           Pressure (atm)  = 131.11
                  Electrical balance (eq)  =  -3.904e-16
 Percent error, 100*(Cat-|An|)/(Cat+|An|)  =  -0.00
                               Iterations  =  42
                                  Total H  = 1.110124e+02
                                  Total O  = 5.550622e+01

----------------------------Distribution of species----------------------------

                                               Log       Log       Log    mole V
   Species          Molality    Activity  Molality  Activity     Gamma   cmÂł/mol

   OH-             3.618e-08   3.617e-08    -7.442    -7.442    -0.000     -4.35
   H+              3.618e-08   3.617e-08    -7.442    -7.442    -0.000      0.00
   H2O             5.551e+01   9.980e-01     1.744    -0.001     0.000     17.90
H(0)          1.424e-14
   H2              7.121e-15   7.121e-15   -14.147   -14.147     0.000     12.59
Hdg           1.194e-01
   Hdg             1.194e-01   1.194e-01    -0.923    -0.923     0.000     12.59
O(0)          0.000e+00
   O2              0.000e+00   0.000e+00   -73.221   -73.221     0.000     27.49

------------------------------Saturation indices-------------------------------

  Phase               SI** log IAP   log K(273 K, 131 atm)

  H2(g)           -11.09    -14.15   -3.06  H2
  H2O(g)           -2.17     -0.00    2.16  H2O	 Pressure   0.0 atm, phi 0.397
  Hdg(g)            2.14     -0.92   -3.06  Hdg	 Pressure 131.1 atm, phi 1.041
  O2(g)           -70.49    -73.22   -2.73  O2

**For a gas, SI = log10(fugacity). Fugacity = pressure * phi / 1 atm.
  For ideal gases, phi = 1.

Reaction step 3.

Using solution 1.	
Using gas phase 1.	
Using temperature 1.	
Using reaction 1.	

Reaction 1.	

	  1.200e-01 moles of the following reaction have been added:

	                 Relative
	Reactant            moles

	Hdg                  1.00000

	                 Relative
	Element             moles
	Hdg                  1.00000

-----------------------------------Gas phase-----------------------------------

Total pressure: 268.47      atmospheres          (Peng-Robinson calculation)
    Gas volume:   1.00e-04 liters
  Molar volume:   9.38e-02 liters/mole
   P * Vm / RT:  1.12364  (Compressibility Factor Z) 

                                                        Moles in gas
                                            ----------------------------------
Component         log P           P    phi     Initial       Final       Delta

H2O(g)            -1.41   3.863e-02  0.197   7.325e-08   1.534e-07   8.011e-08
Hdg(g)             2.43   2.684e+02  1.103   5.578e-04   1.066e-03   5.079e-04

-----------------------------Solution composition------------------------------

	Elements           Molality       Moles

	Hdg               2.389e-01   2.389e-01

----------------------------Description of solution----------------------------

                                       pH  =   7.417      Charge balance
                                       pe  =  -1.898      Adjusted to redox equilibrium
      Specific Conductance (ÂµS/cm,   0Â°C)  = 0
                          Density (g/cmÂł)  =   1.01059
                               Volume (L)  =   0.99000
                        Viscosity (mPa s)  =   1.73837
                        Activity of water  =   0.996
                 Ionic strength (mol/kgw)  =   3.826e-08
                       Mass of water (kg)  =   1.000e+00
                 Total alkalinity (eq/kg)  =   7.269e-16
                         Temperature (Â°C)  =   0.00
                           Pressure (atm)  = 268.47
                  Electrical balance (eq)  =  -7.269e-16
 Percent error, 100*(Cat-|An|)/(Cat+|An|)  =  -0.00
                               Iterations  =  29
                                  Total H  = 1.110124e+02
                                  Total O  = 5.550622e+01

----------------------------Distribution of species----------------------------

                                               Log       Log       Log    mole V
   Species          Molality    Activity  Molality  Activity     Gamma   cmÂł/mol

   OH-             3.826e-08   3.825e-08    -7.417    -7.417    -0.000     -2.59
   H+              3.826e-08   3.825e-08    -7.417    -7.417    -0.000      0.00
   H2O             5.551e+01   9.959e-01     1.744    -0.002     0.000     17.78
H(0)          1.460e-14
   H2              7.301e-15   7.301e-15   -14.137   -14.137     0.000     12.90
Hdg           2.389e-01
   Hdg             2.389e-01   2.389e-01    -0.622    -0.622     0.000     12.90
O(0)          0.000e+00
   O2              0.000e+00   0.000e+00   -73.294   -73.294     0.000     27.50

------------------------------Saturation indices-------------------------------

  Phase               SI** log IAP   log K(273 K, 268 atm)

  H2(g)           -11.04    -14.14   -3.09  H2
  H2O(g)           -2.12     -0.00    2.12  H2O	 Pressure   0.0 atm, phi 0.197
  Hdg(g)            2.47     -0.62   -3.09  Hdg	 Pressure 268.4 atm, phi 1.103
  O2(g)           -70.49    -73.29   -2.80  O2

**For a gas, SI = log10(fugacity). Fugacity = pressure * phi / 1 atm.
  For ideal gases, phi = 1.

Reaction step 4.

Using solution 1.	
Using gas phase 1.	
Using temperature 1.	
Using reaction 1.	

Reaction 1.	

	  1.200e-01 moles of the following reaction have been added:

	                 Relative
	Reactant            moles

	Hdg                  1.00000

	                 Relative
	Element             moles
	Hdg                  1.00000

-----------------------------------Gas phase-----------------------------------

Total pressure: 409.60      atmospheres          (Peng-Robinson calculation)
    Gas volume:   1.00e-04 liters
  Molar volume:   6.64e-02 liters/mole
   P * Vm / RT:  1.21406  (Compressibility Factor Z) 

                                                        Moles in gas
                                            ----------------------------------
Component         log P           P    phi     Initial       Final       Delta

H2O(g)            -1.14   7.239e-02  0.117   1.534e-07   2.660e-07   1.127e-07
Hdg(g)             2.61   4.095e+02  1.183   1.066e-03   1.505e-03   4.391e-04

-----------------------------Solution composition------------------------------

	Elements           Molality       Moles

	Hdg               3.585e-01   3.585e-01

----------------------------Description of solution----------------------------

                                       pH  =   7.397      Charge balance
                                       pe  =  -1.245      Adjusted to redox equilibrium
      Specific Conductance (ÂµS/cm,   0Â°C)  = 0
                          Density (g/cmÂł)  =   1.01581
                               Volume (L)  =   0.98515
                        Viscosity (mPa s)  =   1.71613
                        Activity of water  =   0.994
                 Ionic strength (mol/kgw)  =   4.010e-08
                       Mass of water (kg)  =   1.000e+00
                 Total alkalinity (eq/kg)  =   1.097e-15
                         Temperature (Â°C)  =   0.00
                           Pressure (atm)  = 409.60
                  Electrical balance (eq)  =  -1.097e-15
 Percent error, 100*(Cat-|An|)/(Cat+|An|)  =  -0.00
                               Iterations  =  39
                                  Total H  = 1.110124e+02
                                  Total O  = 5.550622e+01

----------------------------Distribution of species----------------------------

                                               Log       Log       Log    mole V
   Species          Molality    Activity  Molality  Activity     Gamma   cmÂł/mol

   OH-             4.010e-08   4.009e-08    -7.397    -7.397    -0.000     -0.93
   H+              4.010e-08   4.009e-08    -7.397    -7.397    -0.000      0.00
   H2O             5.551e+01   9.939e-01     1.744    -0.003     0.000     17.66
H(0)          7.269e-16
   H2              3.635e-16   3.635e-16   -15.440   -15.440     0.000     13.19
Hdg           3.585e-01
   Hdg             3.585e-01   3.585e-01    -0.446    -0.446     0.000     13.19
O(0)          0.000e+00
   O2              0.000e+00   0.000e+00   -70.745   -70.745     0.000     27.50

------------------------------Saturation indices-------------------------------

  Phase               SI** log IAP   log K(273 K, 410 atm)

  H2(g)           -12.31    -15.44   -3.13  H2
  H2O(g)           -2.07     -0.00    2.07  H2O	 Pressure   0.1 atm, phi 0.117
  Hdg(g)            2.69     -0.45   -3.13  Hdg	 Pressure 409.5 atm, phi 1.183
  O2(g)           -67.87    -70.74   -2.88  O2

**For a gas, SI = log10(fugacity). Fugacity = pressure * phi / 1 atm.
  For ideal gases, phi = 1.

Reaction step 5.

Using solution 1.	
Using gas phase 1.	
Using temperature 1.	
Using reaction 1.	

Reaction 1.	

	  1.200e-01 moles of the following reaction have been added:

	                 Relative
	Reactant            moles

	Hdg                  1.00000

	                 Relative
	Element             moles
	Hdg                  1.00000

-----------------------------------Gas phase-----------------------------------

Total pressure: 553.19      atmospheres          (Peng-Robinson calculation)
    Gas volume:   1.00e-04 liters
  Molar volume:   5.32e-02 liters/mole
   P * Vm / RT:  1.31312  (Compressibility Factor Z) 

                                                        Moles in gas
                                            ----------------------------------
Component         log P           P    phi     Initial       Final       Delta

H2O(g)            -0.93   1.187e-01  0.079   2.660e-07   4.032e-07   1.372e-07
Hdg(g)             2.74   5.531e+02  1.279   1.505e-03   1.879e-03   3.742e-04

-----------------------------Solution composition------------------------------

	Elements           Molality       Moles

	Hdg               4.781e-01   4.781e-01

----------------------------Description of solution----------------------------

                                       pH  =   7.380      Charge balance
                                       pe  =  12.832      Adjusted to redox equilibrium
      Specific Conductance (ÂµS/cm,   0Â°C)  = 0
                          Density (g/cmÂł)  =   1.02079
                               Volume (L)  =   0.98058
                        Viscosity (mPa s)  =   1.69733
                        Activity of water  =   0.992
                 Ionic strength (mol/kgw)  =   4.167e-08
                       Mass of water (kg)  =   1.000e+00
                 Total alkalinity (eq/kg)  =   1.397e-15
                         Temperature (Â°C)  =   0.00
                           Pressure (atm)  = 553.19
                  Electrical balance (eq)  =  -1.397e-15
 Percent error, 100*(Cat-|An|)/(Cat+|An|)  =  -0.00
                               Iterations  =  47
                                  Total H  = 1.110124e+02
                                  Total O  = 5.550622e+01

----------------------------Distribution of species----------------------------

                                               Log       Log       Log    mole V
   Species          Molality    Activity  Molality  Activity     Gamma   cmÂł/mol

   OH-             4.167e-08   4.166e-08    -7.380    -7.380    -0.000      0.60
   H+              4.167e-08   4.166e-08    -7.380    -7.380    -0.000      0.00
   H2O             5.551e+01   9.919e-01     1.744    -0.004     0.000     17.55
H(0)          0.000e+00
   H2              0.000e+00   0.000e+00   -43.600   -43.600     0.000     13.45
Hdg           4.781e-01
   Hdg             4.781e-01   4.781e-01    -0.320    -0.320     0.000     13.45
O(0)          6.557e-15
   O2              3.278e-15   3.278e-15   -14.484   -14.484     0.000     27.50

------------------------------Saturation indices-------------------------------

  Phase               SI** log IAP   log K(273 K, 553 atm)

  H2(g)           -40.43    -43.60   -3.17  H2
  H2O(g)           -2.03     -0.00    2.02  H2O	 Pressure   0.1 atm, phi 0.079
  Hdg(g)            2.85     -0.32   -3.17  Hdg	 Pressure 553.1 atm, phi 1.279
  O2(g)           -11.53    -14.48   -2.95  O2

**For a gas, SI = log10(fugacity). Fugacity = pressure * phi / 1 atm.
  For ideal gases, phi = 1.

Reaction step 6.

Using solution 1.	
Using gas phase 1.	
Using temperature 1.	
Using reaction 1.	

Reaction 1.	

	  1.200e-01 moles of the following reaction have been added:

	                 Relative
	Reactant            moles

	Hdg                  1.00000

	                 Relative
	Element             moles
	Hdg                  1.00000

-----------------------------------Gas phase-----------------------------------

Total pressure: 698.64      atmospheres          (Peng-Robinson calculation)
    Gas volume:   1.00e-04 liters
  Molar volume:   4.55e-02 liters/mole
   P * Vm / RT:  1.41739  (Compressibility Factor Z) 

                                                        Moles in gas
                                            ----------------------------------
Component         log P           P    phi     Initial       Final       Delta

H2O(g)            -0.75   1.764e-01  0.060   4.032e-07   5.553e-07   1.521e-07
Hdg(g)             2.84   6.985e+02  1.392   1.879e-03   2.198e-03   3.194e-04

-----------------------------Solution composition------------------------------

	Elements           Molality       Moles

	Hdg               5.978e-01   5.978e-01

----------------------------Description of solution----------------------------

                                       pH  =   7.367      Charge balance
                                       pe  =  12.838      Adjusted to redox equilibrium
      Specific Conductance (ÂµS/cm,   0Â°C)  = 0
                          Density (g/cmÂł)  =   1.02552
                               Volume (L)  =   0.97629
                        Viscosity (mPa s)  =   1.68190
                        Activity of water  =   0.990
                 Ionic strength (mol/kgw)  =   4.295e-08
                       Mass of water (kg)  =   1.000e+00
                 Total alkalinity (eq/kg)  =   1.800e-15
                         Temperature (Â°C)  =   0.00
                           Pressure (atm)  = 698.64
                  Electrical balance (eq)  =  -1.800e-15
 Percent error, 100*(Cat-|An|)/(Cat+|An|)  =  -0.00
                               Iterations  =  54
                                  Total H  = 1.110124e+02
                                  Total O  = 5.550622e+01

----------------------------Distribution of species----------------------------

                                               Log       Log       Log    mole V
   Species          Molality    Activity  Molality  Activity     Gamma   cmÂł/mol

   OH-             4.295e-08   4.294e-08    -7.367    -7.367    -0.000      2.01
   H+              4.295e-08   4.294e-08    -7.367    -7.367    -0.000      0.00
   H2O             5.551e+01   9.898e-01     1.744    -0.004     0.000     17.44
H(0)          0.000e+00
   H2              0.000e+00   0.000e+00   -43.628   -43.628     0.000     13.69
Hdg           5.978e-01
   Hdg             5.978e-01   5.978e-01    -0.223    -0.223     0.000     13.69
O(0)          6.407e-15
   O2              3.204e-15   3.204e-15   -14.494   -14.494     0.000     27.50

------------------------------Saturation indices-------------------------------

  Phase               SI** log IAP   log K(273 K, 699 atm)

  H2(g)           -40.42    -43.63   -3.21  H2
  H2O(g)           -1.98     -0.00    1.97  H2O	 Pressure   0.2 atm, phi 0.060
  Hdg(g)            2.99     -0.22   -3.21  Hdg	 Pressure 698.5 atm, phi 1.392
  O2(g)           -11.46    -14.49   -3.03  O2

**For a gas, SI = log10(fugacity). Fugacity = pressure * phi / 1 atm.
  For ideal gases, phi = 1.

Reaction step 7.

Using solution 1.	
Using gas phase 1.	
Using temperature 1.	
Using reaction 1.	

Reaction 1.	

	  1.200e-01 moles of the following reaction have been added:

	                 Relative
	Reactant            moles

	Hdg                  1.00000

	                 Relative
	Element             moles
	Hdg                  1.00000

-----------------------------------Gas phase-----------------------------------

Total pressure: 845.76      atmospheres          (Peng-Robinson calculation)
    Gas volume:   1.00e-04 liters
  Molar volume:   4.04e-02 liters/mole
   P * Vm / RT:  1.52511  (Compressibility Factor Z) 

                                                        Moles in gas
                                            ----------------------------------
Component         log P           P    phi     Initial       Final       Delta

H2O(g)            -0.61   2.439e-01  0.048   5.553e-07   7.136e-07   1.583e-07
Hdg(g)             2.93   8.455e+02  1.523   2.198e-03   2.473e-03   2.749e-04

-----------------------------Solution composition------------------------------

	Elements           Molality       Moles

	Hdg               7.175e-01   7.175e-01

----------------------------Description of solution----------------------------

                                       pH  =   7.357      Charge balance
                                       pe  =  12.924      Adjusted to redox equilibrium
      Specific Conductance (ÂµS/cm,   0Â°C)  = 0
                          Density (g/cmÂł)  =   1.03002
                               Volume (L)  =   0.97226
                        Viscosity (mPa s)  =   1.66967
                        Activity of water  =   0.988
                 Ionic strength (mol/kgw)  =   4.394e-08
                       Mass of water (kg)  =   1.000e+00
                 Total alkalinity (eq/kg)  =   2.149e-15
                         Temperature (Â°C)  =   0.00
                           Pressure (atm)  = 845.76
                  Electrical balance (eq)  =  -2.149e-15
 Percent error, 100*(Cat-|An|)/(Cat+|An|)  =  -0.00
                               Iterations  =  52
                                  Total H  = 1.110124e+02
                                  Total O  = 5.550622e+01

----------------------------Distribution of species----------------------------

                                               Log       Log       Log    mole V
   Species          Molality    Activity  Molality  Activity     Gamma   cmÂł/mol

   OH-             4.394e-08   4.393e-08    -7.357    -7.357    -0.000      3.33
   H+              4.394e-08   4.393e-08    -7.357    -7.357    -0.000      0.00
   H2O             5.551e+01   9.878e-01     1.744    -0.005     0.000     17.34
H(0)          0.000e+00
   H2              0.000e+00   0.000e+00   -43.822   -43.822     0.000     13.92
Hdg           7.175e-01
   Hdg             7.175e-01   7.175e-01    -0.144    -0.144     0.000     13.92
O(0)          1.331e-14
   O2              6.655e-15   6.655e-15   -14.177   -14.177     0.000     27.50

------------------------------Saturation indices-------------------------------

  Phase               SI** log IAP   log K(273 K, 846 atm)

  H2(g)           -40.57    -43.82   -3.25  H2
  H2O(g)           -1.93     -0.01    1.93  H2O	 Pressure   0.2 atm, phi 0.048
  Hdg(g)            3.11     -0.14   -3.25  Hdg	 Pressure 845.5 atm, phi 1.523
  O2(g)           -11.07    -14.18   -3.11  O2

**For a gas, SI = log10(fugacity). Fugacity = pressure * phi / 1 atm.
  For ideal gases, phi = 1.

Reaction step 8.

Using solution 1.	
Using gas phase 1.	
Using temperature 1.	
Using reaction 1.	

Reaction 1.	

	  1.200e-01 moles of the following reaction have been added:

	                 Relative
	Reactant            moles

	Hdg                  1.00000

	                 Relative
	Element             moles
	Hdg                  1.00000

-----------------------------------Gas phase-----------------------------------

Total pressure: 994.54      atmospheres          (Peng-Robinson calculation)
    Gas volume:   1.00e-04 liters
  Molar volume:   3.69e-02 liters/mole
   P * Vm / RT:  1.63538  (Compressibility Factor Z) 

                                                        Moles in gas
                                            ----------------------------------
Component         log P           P    phi     Initial       Final       Delta

H2O(g)            -0.50   3.193e-01  0.041   7.136e-07   8.711e-07   1.575e-07
Hdg(g)             3.00   9.942e+02  1.673   2.473e-03   2.712e-03   2.389e-04

-----------------------------Solution composition------------------------------

	Elements           Molality       Moles

	Hdg               8.373e-01   8.373e-01

----------------------------Description of solution----------------------------

                                       pH  =   7.350      Charge balance
                                       pe  =  12.926      Adjusted to redox equilibrium
      Specific Conductance (ÂµS/cm,   0Â°C)  = 0
                          Density (g/cmÂł)  =   1.03433
                               Volume (L)  =   0.96844
                        Viscosity (mPa s)  =   1.66048
                        Activity of water  =   0.986
                 Ionic strength (mol/kgw)  =   4.465e-08
                       Mass of water (kg)  =   1.000e+00
                 Total alkalinity (eq/kg)  =   2.493e-15
                         Temperature (Â°C)  =   0.00
                           Pressure (atm)  = 994.54
                  Electrical balance (eq)  =  -2.493e-15
 Percent error, 100*(Cat-|An|)/(Cat+|An|)  =  -0.00
                               Iterations  =  50
                                  Total H  = 1.110124e+02
                                  Total O  = 5.550622e+01

----------------------------Distribution of species----------------------------

                                               Log       Log       Log    mole V
   Species          Molality    Activity  Molality  Activity     Gamma   cmÂł/mol

   OH-             4.465e-08   4.464e-08    -7.350    -7.350    -0.000      4.55
   H+              4.465e-08   4.464e-08    -7.350    -7.350    -0.000      0.00
   H2O             5.551e+01   9.858e-01     1.744    -0.006     0.000     17.23
H(0)          0.000e+00
   H2              0.000e+00   0.000e+00   -43.856   -43.856     0.000     14.12
Hdg           8.373e-01
   Hdg             8.373e-01   8.373e-01    -0.077    -0.077     0.000     14.12
O(0)          1.314e-14
   O2              6.568e-15   6.568e-15   -14.183   -14.183     0.000     27.50

------------------------------Saturation indices-------------------------------

  Phase               SI** log IAP   log K(273 K, 995 atm)

  H2(g)           -40.56    -43.86   -3.30  H2
  H2O(g)           -1.88     -0.01    1.88  H2O	 Pressure   0.3 atm, phi 0.041
  Hdg(g)            3.22     -0.08   -3.30  Hdg	 Pressure 994.2 atm, phi 1.673
  O2(g)           -10.99    -14.18   -3.19  O2

**For a gas, SI = log10(fugacity). Fugacity = pressure * phi / 1 atm.
  For ideal gases, phi = 1.

Reaction step 9.

Using solution 1.	
Using gas phase 1.	
Using temperature 1.	
Using reaction 1.	

Reaction 1.	

	  1.200e-01 moles of the following reaction have been added:

	                 Relative
	Reactant            moles

	Hdg                  1.00000

	                 Relative
	Element             moles
	Hdg                  1.00000

-----------------------------------Gas phase-----------------------------------

Total pressure: 1145.12      atmospheres          (Peng-Robinson calculation)
    Gas volume:   1.00e-04 liters
  Molar volume:   3.42e-02 liters/mole
   P * Vm / RT:  1.74779  (Compressibility Factor Z) 

                                                        Moles in gas
                                            ----------------------------------
Component         log P           P    phi     Initial       Final       Delta

H2O(g)            -0.40   4.006e-01  0.036   8.711e-07   1.023e-06   1.515e-07
Hdg(g)             3.06   1.145e+03  1.844   2.712e-03   2.922e-03   2.097e-04

-----------------------------Solution composition------------------------------

	Elements           Molality       Moles

	Hdg               9.571e-01   9.571e-01

----------------------------Description of solution----------------------------

                                       pH  =   7.346      Charge balance
                                       pe  =  12.972      Adjusted to redox equilibrium
      Specific Conductance (ÂµS/cm,   0Â°C)  = 0
                          Density (g/cmÂł)  =   1.03850
                               Volume (L)  =   0.96479
                        Viscosity (mPa s)  =   1.65417
                        Activity of water  =   0.984
                 Ionic strength (mol/kgw)  =   4.509e-08
                       Mass of water (kg)  =   1.000e+00
                 Total alkalinity (eq/kg)  =   2.831e-15
                         Temperature (Â°C)  =   0.00
                           Pressure (atm)  = 1145.12
                  Electrical balance (eq)  =  -2.831e-15
 Percent error, 100*(Cat-|An|)/(Cat+|An|)  =  -0.00
                               Iterations  =  48
                                  Total H  = 1.110124e+02
                                  Total O  = 5.550622e+01

----------------------------Distribution of species----------------------------

                                               Log       Log       Log    mole V
   Species          Molality    Activity  Molality  Activity     Gamma   cmÂł/mol

   OH-             4.509e-08   4.508e-08    -7.346    -7.346    -0.000      5.69
   H+              4.509e-08   4.508e-08    -7.346    -7.346    -0.000      0.00
   H2O             5.551e+01   9.837e-01     1.744    -0.007     0.000     17.13
H(0)          0.000e+00
   H2              0.000e+00   0.000e+00   -43.986   -43.986     0.000     14.31
Hdg           9.571e-01
   Hdg             9.571e-01   9.571e-01    -0.019    -0.019     0.000     14.31
O(0)          2.007e-14
   O2              1.003e-14   1.003e-14   -13.998   -13.998     0.000     27.50

------------------------------Saturation indices-------------------------------

  Phase               SI** log IAP   log K(273 K, 1145 atm)

  H2(g)           -40.64    -43.99   -3.34  H2
  H2O(g)           -1.84     -0.01    1.83  H2O	 Pressure   0.4 atm, phi 0.036
  Hdg(g)            3.32     -0.02   -3.34  Hdg	 Pressure 1144.7 atm, phi 1.844
  O2(g)           -10.73    -14.00   -3.27  O2

**For a gas, SI = log10(fugacity). Fugacity = pressure * phi / 1 atm.
  For ideal gases, phi = 1.

Reaction step 10.

Using solution 1.	
Using gas phase 1.	
Using temperature 1.	
Using reaction 1.	

Reaction 1.	

	  1.200e-01 moles of the following reaction have been added:

	                 Relative
	Reactant            moles

	Hdg                  1.00000

	                 Relative
	Element             moles
	Hdg                  1.00000

-----------------------------------Gas phase-----------------------------------

Total pressure: 1297.69      atmospheres          (Peng-Robinson calculation)
    Gas volume:   1.00e-04 liters
  Molar volume:   3.22e-02 liters/mole
   P * Vm / RT:  1.86218  (Compressibility Factor Z) 

                                                        Moles in gas
                                            ----------------------------------
Component         log P           P    phi     Initial       Final       Delta

H2O(g)            -0.31   4.860e-01  0.033   1.023e-06   1.164e-06   1.418e-07
Hdg(g)             3.11   1.297e+03  2.039   2.922e-03   3.108e-03   1.859e-04

-----------------------------Solution composition------------------------------

	Elements           Molality       Moles

	Hdg               1.077e+00   1.077e+00

----------------------------Description of solution----------------------------

                                       pH  =   7.344      Charge balance
                                       pe  =  12.970      Adjusted to redox equilibrium
      Specific Conductance (ÂµS/cm,   0Â°C)  = 0
                          Density (g/cmÂł)  =   1.04258
                               Volume (L)  =   0.96124
                        Viscosity (mPa s)  =   1.65071
                        Activity of water  =   0.982
                 Ionic strength (mol/kgw)  =   4.528e-08
                       Mass of water (kg)  =   1.000e+00
                 Total alkalinity (eq/kg)  =   3.191e-15
                         Temperature (Â°C)  =   0.00
                           Pressure (atm)  = 1297.69
                  Electrical balance (eq)  =  -3.191e-15
 Percent error, 100*(Cat-|An|)/(Cat+|An|)  =  -0.00
                               Iterations  =  44
                                  Total H  = 1.110124e+02
                                  Total O  = 5.550622e+01

----------------------------Distribution of species----------------------------

                                               Log       Log       Log    mole V
   Species          Molality    Activity  Molality  Activity     Gamma   cmÂł/mol

   OH-             4.528e-08   4.527e-08    -7.344    -7.344    -0.000      6.76
   H+              4.528e-08   4.527e-08    -7.344    -7.344    -0.000      0.00
   H2O             5.551e+01   9.817e-01     1.744    -0.008     0.000     17.04
H(0)          0.000e+00
   H2              0.000e+00   0.000e+00   -44.024   -44.024     0.000     14.49
Hdg           1.077e+00
   Hdg             1.077e+00   1.077e+00     0.032     0.032     0.000     14.49
O(0)          1.990e-14
   O2              9.950e-15   9.950e-15   -14.002   -14.002     0.000     27.49

------------------------------Saturation indices-------------------------------

  Phase               SI** log IAP   log K(273 K, 1298 atm)

  H2(g)           -40.63    -44.02   -3.39  H2
  H2O(g)           -1.79     -0.01    1.78  H2O	 Pressure   0.5 atm, phi 0.033
  Hdg(g)            3.42      0.03   -3.39  Hdg	 Pressure 1297.2 atm, phi 2.039
  O2(g)           -10.65    -14.00   -3.35  O2

**For a gas, SI = log10(fugacity). Fugacity = pressure * phi / 1 atm.
  For ideal gases, phi = 1.

Reaction step 11.

Using solution 1.	
Using gas phase 1.	
Using temperature 1.	
Using reaction 1.	

Reaction 1.	

	  1.200e-01 moles of the following reaction have been added:

	                 Relative
	Reactant            moles

	Hdg                  1.00000

	                 Relative
	Element             moles
	Hdg                  1.00000

-----------------------------------Gas phase-----------------------------------

Total pressure: 1452.50      atmospheres          (Peng-Robinson calculation)
    Gas volume:   1.00e-04 liters
  Molar volume:   3.05e-02 liters/mole
   P * Vm / RT:  1.97851  (Compressibility Factor Z) 

                                                        Moles in gas
                                            ----------------------------------
Component         log P           P    phi     Initial       Final       Delta

H2O(g)            -0.24   5.738e-01  0.032   1.164e-06   1.294e-06   1.294e-07
Hdg(g)             3.16   1.452e+03  2.262   3.108e-03   3.274e-03   1.661e-04

-----------------------------Solution composition------------------------------

	Elements           Molality       Moles

	Hdg               1.197e+00   1.197e+00

----------------------------Description of solution----------------------------

                                       pH  =   7.345      Charge balance
                                       pe  =  12.999      Adjusted to redox equilibrium
      Specific Conductance (ÂµS/cm,   0Â°C)  = 0
                          Density (g/cmÂł)  =   1.04666
                               Volume (L)  =   0.95772
                        Viscosity (mPa s)  =   1.65016
                        Activity of water  =   0.980
                 Ionic strength (mol/kgw)  =   4.522e-08
                       Mass of water (kg)  =   1.000e+00
                 Total alkalinity (eq/kg)  =   2.803e-15
                         Temperature (Â°C)  =   0.00
                           Pressure (atm)  = 1452.50
                  Electrical balance (eq)  =  -2.803e-15
 Percent error, 100*(Cat-|An|)/(Cat+|An|)  =  -0.00
                               Iterations  =  45
                                  Total H  = 1.110124e+02
                                  Total O  = 5.550622e+01

----------------------------Distribution of species----------------------------

                                               Log       Log       Log    mole V
   Species          Molality    Activity  Molality  Activity     Gamma   cmÂł/mol

   OH-             4.522e-08   4.521e-08    -7.345    -7.345    -0.000      7.77
   H+              4.522e-08   4.521e-08    -7.345    -7.345    -0.000      0.00
   H2O             5.551e+01   9.797e-01     1.744    -0.009     0.000     16.94
H(0)          0.000e+00
   H2              0.000e+00   0.000e+00   -44.131   -44.131     0.000     14.66
Hdg           1.197e+00
   Hdg             1.197e+00   1.197e+00     0.078     0.078     0.000     14.66
O(0)          2.683e-14
   O2              1.341e-14   1.341e-14   -13.872   -13.872     0.000     27.49

------------------------------Saturation indices-------------------------------

  Phase               SI** log IAP   log K(273 K, 1452 atm)

  H2(g)           -40.69    -44.13   -3.44  H2
  H2O(g)           -1.74     -0.01    1.73  H2O	 Pressure   0.6 atm, phi 0.032
  Hdg(g)            3.52      0.08   -3.44  Hdg	 Pressure 1451.9 atm, phi 2.262
  O2(g)           -10.44    -13.87   -3.43  O2

**For a gas, SI = log10(fugacity). Fugacity = pressure * phi / 1 atm.
  For ideal gases, phi = 1.

------------------
End of simulation.
------------------

------------------------------------
Reading input data for simulation 4.
------------------------------------

	USE solution 1
	 USE reaction 2
	 USE gas_phase 1
	REACTION_TEMPERATURE 1
	 30
	END
-----------------------------------------
Beginning of batch-reaction calculations.
-----------------------------------------

Reaction step 1.

WARNING: Element Hdg is contained in gas Hdg(g) (which has 0.0 mass),
but is not in solution or other phases.
Using solution 1.	
Using gas phase 1.	
Using temperature 1.	
Using reaction 2.	

Reaction 2.	

	  0.000e+00 moles of the following reaction have been added:

	                 Relative
	Reactant            moles

	Hdg                  1.00000

	                 Relative
	Element             moles
	Hdg                  1.00000

-----------------------------------Gas phase-----------------------------------

Total pressure:  0.04      atmospheres          (Peng-Robinson calculation)
    Gas volume:   1.00e-04 liters
  Molar volume:   6.02e+02 liters/mole
   P * Vm / RT:  0.99939  (Compressibility Factor Z) 

                                                        Moles in gas
                                            ----------------------------------
Component         log P           P    phi     Initial       Final       Delta

H2O(g)            -1.38   4.202e-02  0.999   0.000e+00   1.690e-07   1.690e-07
Hdg(g)           -99.99   0.000e+00  2.262   0.000e+00   0.000e+00   0.000e+00

-----------------------------Solution composition------------------------------

	Elements           Molality       Moles

	Pure water     

----------------------------Description of solution----------------------------

                                       pH  =   6.917      Charge balance
                                       pe  =  -0.093      Adjusted to redox equilibrium
      Specific Conductance (ÂµS/cm,  30Â°C)  = 0
                          Density (g/cmÂł)  =   0.99560
                               Volume (L)  =   1.00442
                        Viscosity (mPa s)  =   0.79722
                        Activity of water  =   1.000
                 Ionic strength (mol/kgw)  =   1.212e-07
                       Mass of water (kg)  =   1.000e+00
                 Total alkalinity (eq/kg)  =   3.040e-17
                         Temperature (Â°C)  =  30.00
                           Pressure (atm)  =  0.04
                  Electrical balance (eq)  =  -3.040e-17
 Percent error, 100*(Cat-|An|)/(Cat+|An|)  =  -0.00
                               Iterations  =   9
                                  Total H  = 1.110124e+02
                                  Total O  = 5.550622e+01

----------------------------Distribution of species----------------------------

                                               Log       Log       Log    mole V
   Species          Molality    Activity  Molality  Activity     Gamma   cmÂł/mol

   OH-             1.212e-07   1.212e-07    -6.916    -6.917    -0.000     -3.98
   H+              1.212e-07   1.212e-07    -6.916    -6.917    -0.000      0.00
   H2O             5.551e+01   1.000e+00     1.744    -0.000     0.000     18.10
H(0)          3.040e-17
   H2              1.520e-17   1.520e-17   -16.818   -16.818     0.000     15.34
O(0)          0.000e+00
   O2              0.000e+00   0.000e+00   -57.099   -57.099     0.000     30.77

------------------------------Saturation indices-------------------------------

  Phase               SI** log IAP   log K(303 K,   0 atm)

  H2(g)           -13.71    -16.82   -3.11  H2
  H2O(g)           -1.38     -0.00    1.38  H2O	 Pressure   0.0 atm, phi 0.999
  O2(g)           -54.17    -57.10   -2.93  O2

**For a gas, SI = log10(fugacity). Fugacity = pressure * phi / 1 atm.
  For ideal gases, phi = 1.

Reaction step 2.

Using solution 1.	
Using gas phase 1.	
Using temperature 1.	
Using reaction 2.	

Reaction 2.	

	  9.000e-02 moles of the following reaction have been added:

	                 Relative
	Reactant            moles

	Hdg                  1.00000

	                 Relative
	Element             moles
	Hdg                  1.00000

-----------------------------------Gas phase-----------------------------------

Total pressure: 119.22      atmospheres          (Peng-Robinson calculation)
    Gas volume:   1.00e-04 liters
  Molar volume:   2.17e-01 liters/mole
   P * Vm / RT:  1.04159  (Compressibility Factor Z) 

                                                        Moles in gas
                                            ----------------------------------
Component         log P           P    phi     Initial       Final       Delta

H2O(g)            -1.05   8.927e-02  0.512   1.690e-07   3.445e-07   1.755e-07
Hdg(g)             2.08   1.191e+02  1.038   0.000e+00   4.598e-04   4.598e-04

-----------------------------Solution composition------------------------------

	Elements           Molality       Moles

	Hdg               8.954e-02   8.954e-02

----------------------------Description of solution----------------------------

                                       pH  =   6.894      Charge balance
                                       pe  =  -0.087      Adjusted to redox equilibrium
      Specific Conductance (ÂµS/cm,  30Â°C)  = 0
                          Density (g/cmÂł)  =   0.99442
                               Volume (L)  =   1.00580
                        Viscosity (mPa s)  =   0.79722
                        Activity of water  =   0.998
                 Ionic strength (mol/kgw)  =   1.276e-07
                       Mass of water (kg)  =   1.000e+00
                 Total alkalinity (eq/kg)  =   8.446e-16
                         Temperature (Â°C)  =  30.00
                           Pressure (atm)  = 119.22
                  Electrical balance (eq)  =  -8.446e-16
 Percent error, 100*(Cat-|An|)/(Cat+|An|)  =  -0.00
                               Iterations  =  40
                                  Total H  = 1.110124e+02
                                  Total O  = 5.550622e+01

----------------------------Distribution of species----------------------------

                                               Log       Log       Log    mole V
   Species          Molality    Activity  Molality  Activity     Gamma   cmÂł/mol

   OH-             1.276e-07   1.275e-07    -6.894    -6.894    -0.000     -3.70
   H+              1.276e-07   1.275e-07    -6.894    -6.894    -0.000      0.00
   H2O             5.551e+01   9.985e-01     1.744    -0.001     0.000     18.10
H(0)          3.040e-17
   H2              1.520e-17   1.520e-17   -16.818   -16.818     0.000     15.39
Hdg           8.954e-02
   Hdg             8.954e-02   8.954e-02    -1.048    -1.048     0.000     15.39
O(0)          0.000e+00
   O2              0.000e+00   0.000e+00   -57.152   -57.152     0.000     30.58

------------------------------Saturation indices-------------------------------

  Phase               SI** log IAP   log K(303 K, 119 atm)

  H2(g)           -13.68    -16.82   -3.14  H2
  H2O(g)           -1.34     -0.00    1.34  H2O	 Pressure   0.1 atm, phi 0.512
  Hdg(g)            2.09     -1.05   -3.14  Hdg	 Pressure 119.1 atm, phi 1.038
  O2(g)           -54.16    -57.15   -2.99  O2

**For a gas, SI = log10(fugacity). Fugacity = pressure * phi / 1 atm.
  For ideal gases, phi = 1.

Reaction step 3.

Using solution 1.	
Using gas phase 1.	
Using temperature 1.	
Using reaction 2.	

Reaction 2.	

	  9.000e-02 moles of the following reaction have been added:

	                 Relative
	Reactant            moles

	Hdg                  1.00000

	                 Relative
	Element             moles
	Hdg                  1.00000

-----------------------------------Gas phase-----------------------------------

Total pressure: 245.62      atmospheres          (Peng-Robinson calculation)
    Gas volume:   1.00e-04 liters
  Molar volume:   1.12e-01 liters/mole
   P * Vm / RT:  1.10260  (Compressibility Factor Z) 

                                                        Moles in gas
                                            ----------------------------------
Component         log P           P    phi     Initial       Final       Delta

H2O(g)            -0.78   1.672e-01  0.299   3.445e-07   6.097e-07   2.652e-07
Hdg(g)             2.39   2.454e+02  1.090   4.598e-04   8.949e-04   4.351e-04

-----------------------------Solution composition------------------------------

	Elements           Molality       Moles

	Hdg               1.791e-01   1.791e-01

----------------------------Description of solution----------------------------

                                       pH  =   6.872      Charge balance
                                       pe  =  -0.803      Adjusted to redox equilibrium
      Specific Conductance (ÂµS/cm,  30Â°C)  = 0
                          Density (g/cmÂł)  =   1.00392
                               Volume (L)  =   0.99645
                        Viscosity (mPa s)  =   0.79746
                        Activity of water  =   0.997
                 Ionic strength (mol/kgw)  =   1.344e-07
                       Mass of water (kg)  =   1.000e+00
                 Total alkalinity (eq/kg)  =   1.647e-15
                         Temperature (Â°C)  =  30.00
                           Pressure (atm)  = 245.62
                  Electrical balance (eq)  =  -1.647e-15
 Percent error, 100*(Cat-|An|)/(Cat+|An|)  =  -0.00
                               Iterations  =  30
                                  Total H  = 1.110124e+02
                                  Total O  = 5.550622e+01

----------------------------Distribution of species----------------------------

                                               Log       Log       Log    mole V
   Species          Molality    Activity  Molality  Activity     Gamma   cmÂł/mol

   OH-             1.344e-07   1.343e-07    -6.872    -6.872    -0.000     -3.42
   H+              1.344e-07   1.343e-07    -6.872    -6.872    -0.000      0.00
   H2O             5.551e+01   9.970e-01     1.744    -0.001     0.000     17.90
H(0)          8.446e-16
   H2              4.223e-16   4.223e-16   -15.374   -15.374     0.000     15.44
Hdg           1.791e-01
   Hdg             1.791e-01   1.791e-01    -0.747    -0.747     0.000     15.44
O(0)          0.000e+00
   O2              0.000e+00   0.000e+00   -60.097   -60.097     0.000     30.39

------------------------------Saturation indices-------------------------------

  Phase               SI** log IAP   log K(303 K, 246 atm)

  H2(g)           -12.20    -15.37   -3.17  H2
  H2O(g)           -1.30     -0.00    1.30  H2O	 Pressure   0.2 atm, phi 0.299
  Hdg(g)            2.43     -0.75   -3.17  Hdg	 Pressure 245.4 atm, phi 1.090
  O2(g)           -57.04    -60.10   -3.06  O2

**For a gas, SI = log10(fugacity). Fugacity = pressure * phi / 1 atm.
  For ideal gases, phi = 1.

Reaction step 4.

Using solution 1.	
Using gas phase 1.	
Using temperature 1.	
Using reaction 2.	

Reaction 2.	

	  9.000e-02 moles of the following reaction have been added:

	                 Relative
	Reactant            moles

	Hdg                  1.00000

	                 Relative
	Element             moles
	Hdg                  1.00000

-----------------------------------Gas phase-----------------------------------

Total pressure: 377.33      atmospheres          (Peng-Robinson calculation)
    Gas volume:   1.00e-04 liters
  Molar volume:   7.76e-02 liters/mole
   P * Vm / RT:  1.17640  (Compressibility Factor Z) 

                                                        Moles in gas
                                            ----------------------------------
Component         log P           P    phi     Initial       Final       Delta

H2O(g)            -0.55   2.799e-01  0.196   6.097e-07   9.564e-07   3.467e-07
Hdg(g)             2.58   3.771e+02  1.156   8.949e-04   1.288e-03   3.936e-04

-----------------------------Solution composition------------------------------

	Elements           Molality       Moles

	Hdg               2.687e-01   2.687e-01

----------------------------Description of solution----------------------------

                                       pH  =   6.849      Charge balance
                                       pe  =  -0.943      Adjusted to redox equilibrium
      Specific Conductance (ÂµS/cm,  30Â°C)  = 0
                          Density (g/cmÂł)  =   1.00825
                               Volume (L)  =   0.99235
                        Viscosity (mPa s)  =   0.79820
                        Activity of water  =   0.995
                 Ionic strength (mol/kgw)  =   1.417e-07
                       Mass of water (kg)  =   1.000e+00
                 Total alkalinity (eq/kg)  =   2.881e-15
                         Temperature (Â°C)  =  30.00
                           Pressure (atm)  = 377.33
                  Electrical balance (eq)  =  -2.881e-15
 Percent error, 100*(Cat-|An|)/(Cat+|An|)  =  -0.00
                               Iterations  =  30
                                  Total H  = 1.110124e+02
                                  Total O  = 5.550622e+01

----------------------------Distribution of species----------------------------

                                               Log       Log       Log    mole V
   Species          Molality    Activity  Molality  Activity     Gamma   cmÂł/mol

   OH-             1.417e-07   1.416e-07    -6.849    -6.849    -0.000     -3.14
   H+              1.417e-07   1.416e-07    -6.849    -6.849    -0.000      0.00
   H2O             5.551e+01   9.954e-01     1.744    -0.002     0.000     17.80
H(0)          1.647e-15
   H2              8.237e-16   8.237e-16   -15.084   -15.084     0.000     15.49
Hdg           2.687e-01
   Hdg             2.687e-01   2.687e-01    -0.571    -0.571     0.000     15.49
O(0)          0.000e+00
   O2              0.000e+00   0.000e+00   -60.738   -60.738     0.000     30.21

------------------------------Saturation indices-------------------------------

  Phase               SI** log IAP   log K(303 K, 377 atm)

  H2(g)           -11.87    -15.08   -3.21  H2
  H2O(g)           -1.26     -0.00    1.26  H2O	 Pressure   0.3 atm, phi 0.196
  Hdg(g)            2.64     -0.57   -3.21  Hdg	 Pressure 377.1 atm, phi 1.156
  O2(g)           -57.61    -60.74   -3.13  O2

**For a gas, SI = log10(fugacity). Fugacity = pressure * phi / 1 atm.
  For ideal gases, phi = 1.

Reaction step 5.

Using solution 1.	
Using gas phase 1.	
Using temperature 1.	
Using reaction 2.	

Reaction 2.	

	  9.000e-02 moles of the following reaction have been added:

	                 Relative
	Reactant            moles

	Hdg                  1.00000

	                 Relative
	Element             moles
	Hdg                  1.00000

-----------------------------------Gas phase-----------------------------------

Total pressure: 512.92      atmospheres          (Peng-Robinson calculation)
    Gas volume:   1.00e-04 liters
  Molar volume:   6.10e-02 liters/mole
   P * Vm / RT:  1.25853  (Compressibility Factor Z) 

                                                        Moles in gas
                                            ----------------------------------
Component         log P           P    phi     Initial       Final       Delta

H2O(g)            -0.37   4.269e-01  0.141   9.564e-07   1.364e-06   4.073e-07
Hdg(g)             2.71   5.125e+02  1.235   1.288e-03   1.637e-03   3.485e-04

-----------------------------Solution composition------------------------------

	Elements           Molality       Moles

	Hdg               3.584e-01   3.584e-01

----------------------------Description of solution----------------------------

                                       pH  =   6.826      Charge balance
                                       pe  =  -1.060      Adjusted to redox equilibrium
      Specific Conductance (ÂµS/cm,  30Â°C)  = 0
                          Density (g/cmÂł)  =   1.01257
                               Volume (L)  =   0.98830
                        Viscosity (mPa s)  =   0.79942
                        Activity of water  =   0.994
                 Ionic strength (mol/kgw)  =   1.494e-07
                       Mass of water (kg)  =   1.000e+00
                 Total alkalinity (eq/kg)  =   3.980e-15
                         Temperature (Â°C)  =  30.00
                           Pressure (atm)  = 512.92
                  Electrical balance (eq)  =  -3.980e-15
 Percent error, 100*(Cat-|An|)/(Cat+|An|)  =  -0.00
                               Iterations  =  41
                                  Total H  = 1.110124e+02
                                  Total O  = 5.550622e+01

----------------------------Distribution of species----------------------------

                                               Log       Log       Log    mole V
   Species          Molality    Activity  Molality  Activity     Gamma   cmÂł/mol

   OH-             1.494e-07   1.493e-07    -6.826    -6.826    -0.000     -2.88
   H+              1.494e-07   1.493e-07    -6.826    -6.826    -0.000      0.00
   H2O             5.551e+01   9.939e-01     1.744    -0.003     0.000     17.70
H(0)          2.881e-15
   H2              1.440e-15   1.440e-15   -14.842   -14.842     0.000     15.53
Hdg           3.584e-01
   Hdg             3.584e-01   3.584e-01    -0.446    -0.446     0.000     15.53
O(0)          0.000e+00
   O2              0.000e+00   0.000e+00   -61.287   -61.287     0.000     30.03

------------------------------Saturation indices-------------------------------

  Phase               SI** log IAP   log K(303 K, 513 atm)

  H2(g)           -11.59    -14.84   -3.25  H2
  H2O(g)           -1.22     -0.00    1.22  H2O	 Pressure   0.4 atm, phi 0.141
  Hdg(g)            2.80     -0.45   -3.25  Hdg	 Pressure 512.5 atm, phi 1.235
  O2(g)           -58.09    -61.29   -3.19  O2

**For a gas, SI = log10(fugacity). Fugacity = pressure * phi / 1 atm.
  For ideal gases, phi = 1.

Reaction step 6.

Using solution 1.	
Using gas phase 1.	
Using temperature 1.	
Using reaction 2.	

Reaction 2.	

	  9.000e-02 moles of the following reaction have been added:

	                 Relative
	Reactant            moles

	Hdg                  1.00000

	                 Relative
	Element             moles
	Hdg                  1.00000

-----------------------------------Gas phase-----------------------------------

Total pressure: 651.31      atmospheres          (Peng-Robinson calculation)
    Gas volume:   1.00e-04 liters
  Molar volume:   5.14e-02 liters/mole
   P * Vm / RT:  1.34611  (Compressibility Factor Z) 

                                                        Moles in gas
                                            ----------------------------------
Component         log P           P    phi     Initial       Final       Delta

H2O(g)            -0.22   6.051e-01  0.109   1.364e-06   1.807e-06   4.432e-07
Hdg(g)             2.81   6.507e+02  1.327   1.637e-03   1.943e-03   3.062e-04

-----------------------------Solution composition------------------------------

	Elements           Molality       Moles

	Hdg               4.481e-01   4.481e-01

----------------------------Description of solution----------------------------

                                       pH  =   6.803      Charge balance
                                       pe  =  -1.127      Adjusted to redox equilibrium
      Specific Conductance (ÂµS/cm,  30Â°C)  = 0
                          Density (g/cmÂł)  =   1.01681
                               Volume (L)  =   0.98436
                        Viscosity (mPa s)  =   0.80112
                        Activity of water  =   0.992
                 Ionic strength (mol/kgw)  =   1.573e-07
                       Mass of water (kg)  =   1.000e+00
                 Total alkalinity (eq/kg)  =   5.095e-15
                         Temperature (Â°C)  =  30.00
                           Pressure (atm)  = 651.31
                  Electrical balance (eq)  =  -5.095e-15
 Percent error, 100*(Cat-|An|)/(Cat+|An|)  =  -0.00
                               Iterations  =  41
                                  Total H  = 1.110124e+02
                                  Total O  = 5.550621e+01

----------------------------Distribution of species----------------------------

                                               Log       Log       Log    mole V
   Species          Molality    Activity  Molality  Activity     Gamma   cmÂł/mol

   OH-             1.573e-07   1.573e-07    -6.803    -6.803    -0.000     -2.63
   H+              1.573e-07   1.573e-07    -6.803    -6.803    -0.000      0.00
   H2O             5.551e+01   9.924e-01     1.744    -0.003     0.000     17.61
H(0)          3.980e-15
   H2              1.990e-15   1.990e-15   -14.701   -14.701     0.000     15.57
Hdg           4.481e-01
   Hdg             4.481e-01   4.481e-01    -0.349    -0.349     0.000     15.57
O(0)          0.000e+00
   O2              0.000e+00   0.000e+00   -61.632   -61.632     0.000     29.87

------------------------------Saturation indices-------------------------------

  Phase               SI** log IAP   log K(303 K, 651 atm)

  H2(g)           -11.42    -14.70   -3.29  H2
  H2O(g)           -1.18     -0.00    1.18  H2O	 Pressure   0.6 atm, phi 0.109
  Hdg(g)            2.94     -0.35   -3.29  Hdg	 Pressure 650.7 atm, phi 1.327
  O2(g)           -58.37    -61.63   -3.27  O2

**For a gas, SI = log10(fugacity). Fugacity = pressure * phi / 1 atm.
  For ideal gases, phi = 1.

Reaction step 7.

Using solution 1.	
Using gas phase 1.	
Using temperature 1.	
Using reaction 2.	

Reaction 2.	

	  9.000e-02 moles of the following reaction have been added:

	                 Relative
	Reactant            moles

	Hdg                  1.00000

	                 Relative
	Element             moles
	Hdg                  1.00000

-----------------------------------Gas phase-----------------------------------

Total pressure: 791.72      atmospheres          (Peng-Robinson calculation)
    Gas volume:   1.00e-04 liters
  Molar volume:   4.52e-02 liters/mole
   P * Vm / RT:  1.43730  (Compressibility Factor Z) 

                                                        Moles in gas
                                            ----------------------------------
Component         log P           P    phi     Initial       Final       Delta

H2O(g)            -0.09   8.093e-01  0.090   1.807e-06   2.263e-06   4.564e-07
Hdg(g)             2.90   7.909e+02  1.433   1.943e-03   2.212e-03   2.689e-04

-----------------------------Solution composition------------------------------

	Elements           Molality       Moles

	Hdg               5.378e-01   5.378e-01

----------------------------Description of solution----------------------------

                                       pH  =   6.781      Charge balance
                                       pe  =  -1.178      Adjusted to redox equilibrium
      Specific Conductance (ÂµS/cm,  30Â°C)  = 0
                          Density (g/cmÂł)  =   1.02095
                               Volume (L)  =   0.98054
                        Viscosity (mPa s)  =   0.80333
                        Activity of water  =   0.991
                 Ionic strength (mol/kgw)  =   1.656e-07
                       Mass of water (kg)  =   1.000e+00
                 Total alkalinity (eq/kg)  =   6.602e-15
                         Temperature (Â°C)  =  30.00
                           Pressure (atm)  = 791.72
                  Electrical balance (eq)  =  -6.602e-15
 Percent error, 100*(Cat-|An|)/(Cat+|An|)  =  -0.00
                               Iterations  =  58
                                  Total H  = 1.110124e+02
                                  Total O  = 5.550621e+01

----------------------------Distribution of species----------------------------

                                               Log       Log       Log    mole V
   Species          Molality    Activity  Molality  Activity     Gamma   cmÂł/mol

   OH-             1.656e-07   1.655e-07    -6.781    -6.781    -0.000     -2.39
   H+              1.656e-07   1.655e-07    -6.781    -6.781    -0.000      0.00
   H2O             5.551e+01   9.909e-01     1.744    -0.004     0.000     17.51
H(0)          5.095e-15
   H2              2.548e-15   2.548e-15   -14.594   -14.594     0.000     15.60
Hdg           5.378e-01
   Hdg             5.378e-01   5.378e-01    -0.269    -0.269     0.000     15.60
O(0)          0.000e+00
   O2              0.000e+00   0.000e+00   -61.913   -61.913     0.000     29.72

------------------------------Saturation indices-------------------------------

  Phase               SI** log IAP   log K(303 K, 792 atm)

  H2(g)           -11.27    -14.59   -3.32  H2
  H2O(g)           -1.14     -0.00    1.14  H2O	 Pressure   0.8 atm, phi 0.090
  Hdg(g)            3.05     -0.27   -3.32  Hdg	 Pressure 790.9 atm, phi 1.433
  O2(g)           -58.58    -61.91   -3.34  O2

**For a gas, SI = log10(fugacity). Fugacity = pressure * phi / 1 atm.
  For ideal gases, phi = 1.

Reaction step 8.

Using solution 1.	
Using gas phase 1.	
Using temperature 1.	
Using reaction 2.	

Reaction 2.	

	  9.000e-02 moles of the following reaction have been added:

	                 Relative
	Reactant            moles

	Hdg                  1.00000

	                 Relative
	Element             moles
	Hdg                  1.00000

-----------------------------------Gas phase-----------------------------------

Total pressure: 933.60      atmospheres          (Peng-Robinson calculation)
    Gas volume:   1.00e-04 liters
  Molar volume:   4.08e-02 liters/mole
   P * Vm / RT:  1.53091  (Compressibility Factor Z) 

[...]
   Mn(OH)3-        4.236e-20   2.817e-20   -19.373   -19.550    -0.177     (0)  
Mn(3)         2.047e-30
   Mn+3            2.047e-30   1.644e-31   -29.689   -30.784    -1.095     (0)  
Na            4.653e-01
   Na+             4.562e-01   3.268e-01    -0.341    -0.486    -0.145     -0.45
   NaSO4-          8.925e-03   6.401e-03    -2.049    -2.194    -0.144     21.68
   NaHCO3          1.407e-04   1.761e-04    -3.852    -3.754     0.097     17.79
   Na2SO4          1.067e-06   1.217e-06    -5.972    -5.915     0.057     47.11
O(0)          1.743e-37
   O2              8.717e-38   1.011e-37   -37.060   -36.995     0.065     30.54
S(-2)         0.000e+00
   HS-             0.000e+00   0.000e+00   -74.186   -74.400    -0.214     21.42
   H2S             0.000e+00   0.000e+00   -75.741   -75.676     0.065     36.70
   S-2             0.000e+00   0.000e+00   -78.362   -79.070    -0.708     (0)  
   Fe(HS)2         0.000e+00   0.000e+00  -150.484  -150.419     0.065     (0)  
   (H2S)2          0.000e+00   0.000e+00  -152.676  -152.612     0.065     30.02
   Fe(HS)3-        0.000e+00   0.000e+00  -222.653  -222.782    -0.129     (0)  
S(6)          2.805e-02
   SO4-2           1.185e-02   2.186e-03    -1.926    -2.660    -0.734     17.25
   NaSO4-          8.925e-03   6.401e-03    -2.049    -2.194    -0.144     21.68
   MgSO4           5.926e-03   7.977e-03    -2.227    -2.098     0.129     -0.26
   CaSO4           7.169e-04   7.659e-04    -3.145    -3.116     0.029      7.40
   KSO4-           2.312e-04   2.076e-04    -3.636    -3.683    -0.047     34.80
   Mg(SO4)2-2      1.958e-04   5.559e-05    -3.708    -4.255    -0.547     49.34
   Na2SO4          1.067e-06   1.217e-06    -5.972    -5.915     0.057     47.11
   HSO4-           1.896e-09   1.409e-09    -8.722    -8.851    -0.129     41.07
   CaHSO4+         5.401e-11   4.015e-11   -10.268   -10.396    -0.129     (0)  
   MnSO4           3.324e-11   2.873e-11   -10.478   -10.542    -0.063     17.17
   FeSO4           9.327e-12   1.082e-11   -11.030   -10.966     0.065     30.40
   FeSO4+          8.950e-19   5.952e-19   -18.048   -18.225    -0.177     (0)  
   FeHSO4+         6.145e-19   4.568e-19   -18.211   -18.340    -0.129     (0)  
   Fe(SO4)2-       3.856e-20   2.866e-20   -19.414   -19.543    -0.129     (0)  
   FeHSO4+2        3.331e-26   1.017e-26   -25.477   -25.993    -0.515     (0)  
Si            7.077e-05
   H4SiO4          6.771e-05   7.856e-05    -4.169    -4.105     0.065     51.93
   H3SiO4-         3.059e-06   1.931e-06    -5.514    -5.714    -0.200     28.75
   H2SiO4-2        1.099e-10   2.309e-11    -9.959   -10.637    -0.678     (0)  

------------------------------Saturation indices-------------------------------

  Phase               SI** log IAP   log K(299 K,   1 atm)

  Anhydrite        -0.94     -5.29   -4.34  CaSO4
  Aragonite         0.63     -7.71   -8.35  CaCO3
  Arcanite         -5.22     -7.08   -1.86  K2SO4
  Calcite           0.75     -7.71   -8.46  CaCO3
  CH4(g)          -74.80    -77.62   -2.82  CH4
  Chalcedony       -0.56     -4.09   -3.53  SiO2
  Chrysotile        3.35     35.33   31.98  Mg3Si2O5(OH)4
  CO2(g)           -3.33     -4.82   -1.49  CO2
  Dolomite          2.44    -14.68  -17.12  CaMg(CO3)2
  Epsomite         -2.87     -4.59   -1.73  MgSO4:7H2O
  Fe(OH)3(a)        0.05      4.94    4.89  Fe(OH)3
  FeS(ppt)        -72.86    -76.77   -3.92  FeS
  Goethite          6.01      4.95   -1.06  FeOOH
  Gypsum           -0.75     -5.30   -4.56  CaSO4:2H2O
  H2(g)           -24.30    -27.40   -3.10  H2
  H2O(g)           -1.47     -0.01    1.46  H2O	 Pressure   0.0 atm, phi 0.993
  H2S(g)          -74.66    -82.60   -7.93  H2S
  Halite           -2.52     -0.95    1.57  NaCl
  Hausmannite     -15.15     45.45   60.59  Mn3O4
  Hdg(g)            0.00     -3.10   -3.10  Hdg	 Pressure   1.0 atm, phi 1.000
  Hematite         14.05      9.90   -4.14  Fe2O3
  Hexahydrite      -3.02     -4.58   -1.56  MgSO4:6H2O
  Jarosite-K       -7.93    -17.27   -9.35  KFe3(SO4)2(OH)6
  Kieserite        -3.39     -4.54   -1.15  MgSO4:H2O
  Mackinawite     -72.13    -76.77   -4.65  FeS
  Manganite        -6.16     19.18   25.34  MnOOH
  Melanterite     -11.10    -13.29   -2.19  FeSO4:7H2O
  Mirabilite       -3.14     -3.71   -0.58  Na2SO4:10H2O
  O2(g)           -34.09    -37.00   -2.90  O2
  Pyrite         -116.70   -135.13  -18.43  FeS2
  Pyrochroite      -8.14      7.06   15.20  Mn(OH)2
  Pyrolusite       -9.80     31.30   41.10  MnO2:H2O
  Quartz           -0.13     -4.09   -3.95  SiO2
  Rhodochrosite    -3.26    -14.40  -11.14  MnCO3
  Sepiolite         1.01     16.72   15.71  Mg2Si3O7.5OH:3H2O
  Sepiolite(d)     -1.94     16.72   18.66  Mg2Si3O7.5OH:3H2O
  Siderite         -4.76    -15.66  -10.90  FeCO3
  SiO2(a)          -1.39     -4.09   -2.70  SiO2
  Sulfur          -56.28    -51.43    4.84  S
  Sylvite          -3.58     -2.67    0.91  KCl
  Talc              5.96     27.16   21.20  Mg3Si4O10(OH)2
  Thenardite       -4.26     -3.63    0.63  Na2SO4

**For a gas, SI = log10(fugacity). Fugacity = pressure * phi / 1 atm.
  For ideal gases, phi = 1.

Reaction step 10.

Using solution 999.	SEAWATER FROM NORDSTROM AND OTHERS (1979) * 0.96, diluted to Crozier: S = 33.68
Using pure phase assemblage 999.	
Using gas phase 999.	
Using temperature 1.	

-----------------------------------Gas phase-----------------------------------

Total pressure:  1.04      atmospheres          (Peng-Robinson calculation)
    Gas volume:   1.00e-04 liters
  Molar volume:   2.39e+01 liters/mole
   P * Vm / RT:  0.99998  (Compressibility Factor Z) 

                                                        Moles in gas
                                            ----------------------------------
Component         log P           P    phi     Initial       Final       Delta

H2O(g)            -1.38   4.152e-02  0.993   1.401e-07   1.669e-07   2.681e-08
Hdg(g)            -0.00   1.000e+00  1.000   4.063e-06   4.020e-06  -4.304e-08

-------------------------------Phase assemblage--------------------------------

                                                      Moles in assemblage
Phase               SI  log IAP  log K(T, P)   Initial       Final       Delta

Hdg(g)            0.00    -3.11     -3.11    9.999e+00   9.999e+00   8.412e-06

-----------------------------Solution composition------------------------------

	Elements           Molality       Moles

	C                 2.143e-03   2.143e-03
	Ca                1.022e-02   1.022e-02
	Cl                5.423e-01   5.423e-01
	Fe                3.558e-08   3.558e-08
	Hdg               6.671e-04   6.671e-04
	K                 1.014e-02   1.014e-02
	Mg                5.279e-02   5.279e-02
	Mn                3.617e-09   3.617e-09
	Na                4.653e-01   4.653e-01
	S                 2.805e-02   2.805e-02
	Si                7.077e-05   7.077e-05

----------------------------Description of solution----------------------------

                                       pH  =   8.151      Charge balance
                                       pe  =   3.792      Adjusted to redox equilibrium
      Specific Conductance (ÂµS/cm,  30Â°C)  = 56085
                          Density (g/cmÂł)  =   1.02060
                               Volume (L)  =   1.01396
                        Viscosity (mPa s)  =   0.85598
                        Activity of water  =   0.981
                 Ionic strength (mol/kgw)  =   6.443e-01
                       Mass of water (kg)  =   1.000e+00
                 Total alkalinity (eq/kg)  =   2.307e-03
                       Total CO2 (mol/kg)  =   2.143e-03
                         Temperature (Â°C)  =  30.00
                           Pressure (atm)  =  1.04
                  Electrical balance (eq)  =   7.637e-04
 Percent error, 100*(Cat-|An|)/(Cat+|An|)  =   0.07
                               Iterations  =  11
                                  Total H  = 1.110147e+02
                                  Total O  = 5.562511e+01

----------------------------Distribution of species----------------------------

                                               Log       Log       Log    mole V
   Species          Molality    Activity  Molality  Activity     Gamma   cmÂł/mol

   OH-             3.346e-06   2.042e-06    -5.475    -5.690    -0.215     -2.49
   H+              9.350e-09   7.056e-09    -8.029    -8.151    -0.122      0.00
   H2O             5.551e+01   9.814e-01     1.744    -0.008     0.000     18.09
C(-4)         0.000e+00
   CH4             0.000e+00   0.000e+00   -76.664   -76.599     0.064     35.87
C(4)          2.143e-03
   HCO3-           1.556e-03   1.064e-03    -2.808    -2.973    -0.165     28.31
   MgHCO3+         2.665e-04   1.679e-04    -3.574    -3.775    -0.201      5.95
   NaHCO3          1.451e-04   1.815e-04    -3.838    -3.741     0.097     18.02
   MgCO3           9.081e-05   1.053e-04    -4.042    -3.977     0.064    -17.09
   CO3-2           3.725e-05   7.772e-06    -4.429    -5.109    -0.681     -0.38
   CaCO3           2.936e-05   3.406e-05    -4.532    -4.468     0.064    -14.58
   CO2             1.477e-05   1.629e-05    -4.831    -4.788     0.043     35.03
   KHCO3           2.744e-06   3.183e-06    -5.562    -5.497     0.064     21.76
   CaHCO3+         8.914e-10   6.171e-10    -9.050    -9.210    -0.160     10.14
   MnCO3           2.595e-10   3.010e-10    -9.586    -9.521     0.064     (0)  
   MnHCO3+         6.964e-11   4.624e-11   -10.157   -10.335    -0.178     (0)  
   (CO2)2          4.979e-12   5.491e-12   -11.303   -11.260     0.043     69.21
   FeCO3           4.301e-12   4.989e-12   -11.366   -11.302     0.064     (0)  
   FeHCO3+         3.839e-12   2.848e-12   -11.416   -11.545    -0.130     (0)  
Ca            1.022e-02
   Ca+2            9.428e-03   2.340e-03    -2.026    -2.631    -0.605    -16.61
   CaSO4           7.620e-04   8.140e-04    -3.118    -3.089     0.029      7.71
   CaCO3           2.936e-05   3.406e-05    -4.532    -4.468     0.064    -14.58
   CaOH+           7.279e-08   5.401e-08    -7.138    -7.268    -0.130     (0)  
   CaHCO3+         8.914e-10   6.171e-10    -9.050    -9.210    -0.160     10.14
   CaHSO4+         6.155e-11   4.566e-11   -10.211   -10.340    -0.130     (0)  
Cl            5.423e-01
   Cl-             5.423e-01   3.423e-01    -0.266    -0.466    -0.200     18.91
   MnCl+           1.024e-09   6.799e-10    -8.990    -9.168    -0.178     -1.68
   HCl             4.290e-10   8.067e-10    -9.367    -9.093     0.274     20.69
   MnCl2           8.758e-11   1.016e-10   -10.058    -9.993     0.064     80.17
   FeCl+           1.705e-11   1.265e-11   -10.768   -10.898    -0.130     (0)  
   MnCl3-          1.443e-11   9.578e-12   -10.841   -11.019    -0.178     45.65
   FeCl+2          1.288e-18   2.502e-19   -17.890   -18.602    -0.712     (0)  
   FeCl2+          4.931e-19   3.274e-19   -18.307   -18.485    -0.178     (0)  
   FeCl3           9.662e-21   1.121e-20   -20.015   -19.950     0.064     (0)  
Fe(2)         1.538e-10
   Fe+2            1.165e-10   2.676e-11    -9.934   -10.572    -0.639    -20.43
   FeCl+           1.705e-11   1.265e-11   -10.768   -10.898    -0.130     (0)  
   FeSO4           9.502e-12   1.102e-11   -11.022   -10.958     0.064     30.60
   FeCO3           4.301e-12   4.989e-12   -11.366   -11.302     0.064     (0)  
   FeHCO3+         3.839e-12   2.848e-12   -11.416   -11.545    -0.130     (0)  
   FeOH+           2.560e-12   1.700e-12   -11.592   -11.770    -0.178     (0)  
   Fe(OH)2         2.660e-15   3.086e-15   -14.575   -14.511     0.064     (0)  
   Fe(OH)3-        2.521e-17   1.673e-17   -16.598   -16.776    -0.178     (0)  
   FeHSO4+         7.039e-19   5.223e-19   -18.152   -18.282    -0.130     (0)  
   Fe(HS)2         0.000e+00   0.000e+00  -148.516  -148.452     0.064     (0)  
   Fe(HS)3-        0.000e+00   0.000e+00  -219.700  -219.829    -0.130     (0)  
Fe(3)         3.542e-08
   Fe(OH)3         2.639e-08   3.060e-08    -7.579    -7.514     0.064     (0)  
   Fe(OH)4-        6.999e-09   4.730e-09    -8.155    -8.325    -0.170     (0)  
   Fe(OH)2+        2.040e-09   1.379e-09    -8.690    -8.861    -0.170     (0)  
   FeOH+2          1.279e-13   2.484e-14   -12.893   -13.605    -0.712     (0)  
   FeCl+2          1.288e-18   2.502e-19   -17.890   -18.602    -0.712     (0)  
   FeSO4+          8.073e-19   5.360e-19   -18.093   -18.271    -0.178     (0)  
   FeCl2+          4.931e-19   3.274e-19   -18.307   -18.485    -0.178     (0)  
   Fe+3            2.607e-19   2.071e-20   -18.584   -19.684    -1.100     (0)  
   Fe(SO4)2-       3.411e-20   2.530e-20   -19.467   -19.597    -0.130     (0)  
   FeCl3           9.662e-21   1.121e-20   -20.015   -19.950     0.064     (0)  
   Fe2(OH)2+4      1.609e-24   1.355e-26   -23.794   -25.868    -2.074     (0)  
   FeHSO4+2        3.351e-26   1.015e-26   -25.475   -25.993    -0.519     (0)  
   Fe3(OH)4+5      4.321e-30   2.480e-33   -29.364   -32.606    -3.241     (0)  
H(0)          1.500e-27
   H2              7.499e-28   8.762e-28   -27.125   -27.057     0.068     15.34
Hdg           6.671e-04
   Hdg             6.671e-04   7.795e-04    -3.176    -3.108     0.068     15.34
K             1.014e-02
   K+              9.910e-03   6.183e-03    -2.004    -2.209    -0.205      9.79
   KSO4-           2.273e-04   2.036e-04    -3.643    -3.691    -0.048     34.70
   KHCO3           2.744e-06   3.183e-06    -5.562    -5.497     0.064     21.76
Mg            5.279e-02
   Mg+2            4.607e-02   1.315e-02    -1.337    -1.881    -0.544    -20.57
   MgSO4           6.160e-03   8.288e-03    -2.210    -2.082     0.129     -0.00
   MgHCO3+         2.665e-04   1.679e-04    -3.574    -3.775    -0.201      5.95
   Mg(SO4)2-2      1.870e-04   5.280e-05    -3.728    -4.277    -0.549     50.68
   MgCO3           9.081e-05   1.053e-04    -4.042    -3.977     0.064    -17.09
   MgOH+           1.469e-05   1.035e-05    -4.833    -4.985    -0.152     (0)  
Mn(2)         3.617e-09
   Mn+2            2.122e-09   4.875e-10    -8.673    -9.312    -0.639    -16.33
   MnCl+           1.024e-09   6.799e-10    -8.990    -9.168    -0.178     -1.68
   MnCO3           2.595e-10   3.010e-10    -9.586    -9.521     0.064     (0)  
   MnCl2           8.758e-11   1.016e-10   -10.058    -9.993     0.064     80.17
   MnHCO3+         6.964e-11   4.624e-11   -10.157   -10.335    -0.178     (0)  
   MnSO4           3.524e-11   3.047e-11   -10.453   -10.516    -0.063     17.21
   MnCl3-          1.443e-11   9.578e-12   -10.841   -11.019    -0.178     45.65
   MnOH+           3.919e-12   2.602e-12   -11.407   -11.585    -0.178     (0)  
   Mn(OH)3-        3.131e-20   2.079e-20   -19.504   -19.682    -0.178     (0)  
Mn(3)         2.407e-30
   Mn+3            2.407e-30   1.912e-31   -29.618   -30.718    -1.100     (0)  
Na            4.653e-01
   Na+             4.562e-01   3.261e-01    -0.341    -0.487    -0.146     -0.31
   NaSO4-          8.960e-03   6.410e-03    -2.048    -2.193    -0.145     21.82
   NaHCO3          1.451e-04   1.815e-04    -3.838    -3.741     0.097     18.02
   Na2SO4          1.457e-06   1.662e-06    -5.836    -5.779     0.057     45.66
O(0)          3.983e-37
   O2              1.992e-37   2.310e-37   -36.701   -36.636     0.064     30.77
S(-2)         0.000e+00
   HS-             0.000e+00   0.000e+00   -73.200   -73.415    -0.215     21.56
   H2S             0.000e+00   0.000e+00   -74.751   -74.686     0.064     37.42
   S-2             0.000e+00   0.000e+00   -77.323   -78.035    -0.712     (0)  
   Fe(HS)2         0.000e+00   0.000e+00  -148.516  -148.452     0.064     (0)  
   (H2S)2          0.000e+00   0.000e+00  -150.663  -150.599     0.064     29.87
   Fe(HS)3-        0.000e+00   0.000e+00  -219.700  -219.829    -0.130     (0)  
S(6)          2.805e-02
   SO4-2           1.156e-02   2.117e-03    -1.937    -2.674    -0.737     17.58
   NaSO4-          8.960e-03   6.410e-03    -2.048    -2.193    -0.145     21.82
   MgSO4           6.160e-03   8.288e-03    -2.210    -2.082     0.129     -0.00
   CaSO4           7.620e-04   8.140e-04    -3.118    -3.089     0.029      7.71
   KSO4-           2.273e-04   2.036e-04    -3.643    -3.691    -0.048     34.70
   Mg(SO4)2-2      1.870e-04   5.280e-05    -3.728    -4.277    -0.549     50.68
   Na2SO4          1.457e-06   1.662e-06    -5.836    -5.779     0.057     45.66
   HSO4-           2.188e-09   1.623e-09    -8.660    -8.790    -0.130     41.27
   CaHSO4+         6.155e-11   4.566e-11   -10.211   -10.340    -0.130     (0)  
   MnSO4           3.524e-11   3.047e-11   -10.453   -10.516    -0.063     17.21
   FeSO4           9.502e-12   1.102e-11   -11.022   -10.958     0.064     30.60
   FeSO4+          8.073e-19   5.360e-19   -18.093   -18.271    -0.178     (0)  
   FeHSO4+         7.039e-19   5.223e-19   -18.152   -18.282    -0.130     (0)  
   Fe(SO4)2-       3.411e-20   2.530e-20   -19.467   -19.597    -0.130     (0)  
   FeHSO4+2        3.351e-26   1.015e-26   -25.475   -25.993    -0.519     (0)  
Si            7.077e-05
   H4SiO4          6.768e-05   7.851e-05    -4.170    -4.105     0.064     51.69
   H3SiO4-         3.082e-06   1.941e-06    -5.511    -5.712    -0.201     28.83
   H2SiO4-2        1.230e-10   2.567e-11    -9.910   -10.591    -0.681     (0)  

------------------------------Saturation indices-------------------------------

  Phase               SI** log IAP   log K(303 K,   1 atm)

  Anhydrite        -0.91     -5.31   -4.39  CaSO4
  Aragonite         0.63     -7.74   -8.37  CaCO3
  Arcanite         -5.27     -7.09   -1.82  K2SO4
  Calcite           0.75     -7.74   -8.49  CaCO3
  CH4(g)          -73.75    -76.60   -2.84  CH4
  Chalcedony       -0.59     -4.09   -3.49  SiO2
  Chrysotile        3.46     35.05   31.59  Mg3Si2O5(OH)4
  CO2(g)           -3.26     -4.79   -1.52  CO2
  Dolomite          2.45    -14.73  -17.18  CaMg(CO3)2
  Epsomite         -2.90     -4.61   -1.71  MgSO4:7H2O
  Fe(OH)3(a)       -0.15      4.75    4.89  Fe(OH)3
  FeS(ppt)        -71.92    -75.84   -3.92  FeS
  Goethite          5.93      4.75   -1.18  FeOOH
  Gypsum           -0.75     -5.32   -4.57  CaSO4:2H2O
  H2(g)           -23.95    -27.06   -3.11  H2
  H2O(g)           -1.38     -0.01    1.38  H2O	 Pressure   0.0 atm, phi 0.993
  H2S(g)          -73.64    -81.57   -7.93  H2S
  Halite           -2.53     -0.95    1.57  NaCl
  Hausmannite     -14.99     44.83   59.81  Mn3O4
  Hdg(g)            0.00     -3.11   -3.11  Hdg	 Pressure   1.0 atm, phi 1.000
  Hematite         13.90      9.52   -4.38  Fe2O3
  Hexahydrite      -3.04     -4.60   -1.56  MgSO4:6H2O
  Jarosite-K       -8.16    -17.75   -9.59  KFe3(SO4)2(OH)6
  Kieserite        -3.42     -4.56   -1.14  MgSO4:H2O
  Mackinawite     -71.19    -75.84   -4.65  FeS
  Manganite        -6.42     18.92   25.34  MnOOH
  Melanterite     -11.15    -13.30   -2.15  FeSO4:7H2O
  Mirabilite       -3.39     -3.73   -0.34  Na2SO4:10H2O
  O2(g)           -33.71    -36.64   -2.93  O2
  Pyrite         -115.17   -133.52  -18.34  FeS2
  Pyrochroite      -8.23      6.97   15.20  Mn(OH)2
  Pyrolusite       -9.74     30.85   40.59  MnO2:H2O
  Quartz           -0.18     -4.09   -3.91  SiO2
  Rhodochrosite    -3.27    -14.42  -11.15  MnCO3
  Sepiolite         0.90     16.53   15.63  Mg2Si3O7.5OH:3H2O
  Sepiolite(d)     -2.13     16.53   18.66  Mg2Si3O7.5OH:3H2O
  Siderite         -4.76    -15.68  -10.92  FeCO3
  SiO2(a)          -1.42     -4.09   -2.67  SiO2
  Sulfur          -55.57    -50.80    4.77  S
  Sylvite          -3.60     -2.67    0.92  KCl
  Talc              6.04     26.88   20.84  Mg3Si4O10(OH)2
  Thenardite       -4.23     -3.65    0.58  Na2SO4

**For a gas, SI = log10(fugacity). Fugacity = pressure * phi / 1 atm.
  For ideal gases, phi = 1.

------------------
End of simulation.
------------------

-------------------------------------
Reading input data for simulation 17.
-------------------------------------

