WARNING: Database file from DATABASE keyword is used; command line argument ignored.
   Input file: H2S_numerical
  Output file: H2S_numerical.out
Database file: ../database/Amm.dat

------------------
Reading data base.
------------------

	SOLUTION_MASTER_SPECIES
	SOLUTION_SPECIES
	PHASES
	GAS_BINARY_PARAMETERS
	EXCHANGE_MASTER_SPECIES
	EXCHANGE_SPECIES
	SURFACE_MASTER_SPECIES
	SURFACE_SPECIES
	MEAN_GAMMAS
	RATES
	END
------------------------------------
Reading input data for simulation 1.
------------------------------------

	DATABASE ../database/Amm.dat
	SELECTED_OUTPUT 101
	    file                 H2S_numerical_101.sel
	USER_PUNCH 101
	    headings Mu SC
	    start
	10 PUNCH STR_F$(MU, 20, 12)
	20 PUNCH STR_F$(SC, 20, 10)
	    end
	KNOBS
	numerical_derivatives
	REACTION_TEMPERATURE 15
	0, 5, 10, 15, 20, 25, 30, 35, 40, 50, 60, 70, 80, 90, 94
	REACTION_TEMPERATURE 5
	30, 60, 90, 120, 150
	REACTION_TEMPERATURE 6
	30, 60, 90, 120, 150, 180
	REACTION_TEMPERATURE 7
	30, 60, 90, 120, 150, 180, 210
	REACTION_TEMPERATURE 8
	30, 60, 90, 120, 150, 180, 210, 240
	REACTION_TEMPERATURE 10
	30, 60, 90, 120, 150, 180, 210, 240, 270, 300
	REACTION_TEMPERATURE 101
	30, 60, 90, 120, 150, 180, 210, 240, 270, 295
	SOLUTION 2
	pH 7 charge
	USE solution none
	END
-------------------------------------------
Beginning of initial solution calculations.
-------------------------------------------

Initial solution 2.	

-----------------------------Solution composition------------------------------

	Elements           Molality       Moles

	Pure water     

----------------------------Description of solution----------------------------

                                       pH  =   6.997      Charge balance
                                       pe  =   4.000    
      Specific Conductance (µS/cm,  25°C)  = 0
                          Density (g/cm³)  =   0.99704
                               Volume (L)  =   1.00297
                        Viscosity (mPa s)  =   0.89002
                        Activity of water  =   1.000
                 Ionic strength (mol/kgw)  =   1.006e-07
                       Mass of water (kg)  =   1.000e+00
                 Total alkalinity (eq/kg)  =   7.940e-16
                         Temperature (°C)  =  25.00
                  Electrical balance (eq)  =  -7.940e-16
 Percent error, 100*(Cat-|An|)/(Cat+|An|)  =  -0.00
                               Iterations  =  25
                                  Total H  = 1.110124e+02
                                  Total O  = 5.550622e+01

----------------------------Distribution of species----------------------------

                                               Log       Log       Log    mole V
   Species          Molality    Activity  Molality  Activity     Gamma   cm³/mol

   OH-             1.006e-07   1.006e-07    -6.997    -6.997    -0.000     -4.14
   H+              1.006e-07   1.006e-07    -6.997    -6.997    -0.000      0.00
   H2O             5.551e+01   1.000e+00     1.744    -0.000     0.000     18.07
H(0)          1.433e-25
   H2              7.166e-26   7.166e-26   -25.145   -25.145     0.000     14.99
O(0)          0.000e+00
   O2              0.000e+00   0.000e+00   -42.073   -42.073     0.000     30.40

------------------------------Saturation indices-------------------------------

  Phase               SI** log IAP   log K(298 K,   1 atm)

  H2(g)           -22.05    -25.14   -3.10  H2
  H2O(g)           -1.50     -0.00    1.50  H2O
  O2(g)           -39.18    -42.07   -2.89  O2

**For a gas, SI = log10(fugacity). Fugacity = pressure * phi / 1 atm.
  For ideal gases, phi = 1.

------------------
End of simulation.
------------------

------------------------------------
Reading input data for simulation 2.
------------------------------------

	SOLUTION 1
	 water 1
	 pH 7 charge
	 Sg 9e3
	SELECTED_OUTPUT 2
	 reset false
	 file H2S_numerical.pqi
	 new_line false
	USER_PUNCH 2
	10    sc$ = chr$(59) : hs$ = ' ' + chr$(35) + ' '
	20    data '  1    ', '  29.6 ', '  49.3 ', '  98.7 ', ' 148.0  ', ' 197.4 ', ' 246.7 ', ' 296.1 ', ' 345.4 ', ' 394.8 ', ' 444.1 ', ' 493.5 ', ' 542.8 ', ' 592.1 ', ' 641.5 ', ' 690.8 ', ' 740.2 ', ' 789.5 ', ' 888.2 ', ' 986.9 '
	30    dim p$(20) : for i = 1 to 20 : read p$(i) : next i
	40    data 15, 7, 8, 101, 10, 10, 10, 7, 6, 6, 6, 6, 6, 6, 5, 5, 5, 5, 5, 5
	50    dim t(20) : for i = 1 to 20 : read t(i) : next i
	60    gp$ = 'GAS_PHASE 1' + sc$ + ' -fixed_pr' + sc$ + ' -vol 0.01' + sc$ + 'H2Sg(g) 0' + sc$ + 'H2O(g) 0' + sc$ + ' -pr '
	62    gp2$ = 'GAS_PHASE 1' + sc$ + ' -fixed_pr' + sc$ + ' -vol 0.01' + sc$ + 'H2Sg(g) 0' + sc$ + 'H2O(g) 0' + sc$ + 'Ntg(g) 100' + sc$ + ' -pr '
	70    for i = 1 to 20
	80      punch eol$ + 'USE solution 1' + sc$ + ' USE reaction_temperature ' + str_f$(t(i), 1, 0)
	90      if i < 5 then punch eol$ + gp$ + p$(i) else punch eol$ + gp$ + p$(i)
	92      if i > 1 then punch eol$ + 'USER_GRAPH 1' + sc$ + ' -headings x' #+ p$(i)
	100     punch eol$ + 'END'
	110   next i
	END
-------------------------------------------
Beginning of initial solution calculations.
-------------------------------------------

Initial solution 1.	

WARNING: USER_PUNCH: Headings count does not match number of calls to PUNCH.

-----------------------------Solution composition------------------------------

	Elements           Molality       Moles

	Sg                9.000e+00   9.000e+00

----------------------------Description of solution----------------------------

                                       pH  =   3.095      Charge balance
                                       pe  =   4.000    
      Specific Conductance (µS/cm,  25°C)  = 215
                          Density (g/cm³)  =   1.03860
                               Volume (L)  =   1.25815
                        Viscosity (mPa s)  =   0.89016
                        Activity of water  =   0.876
                 Ionic strength (mol/kgw)  =   8.295e-04
                       Mass of water (kg)  =   1.000e+00
                 Total alkalinity (eq/kg)  =   5.548e-12
                         Temperature (°C)  =  25.00
                  Electrical balance (eq)  =  -5.548e-12
 Percent error, 100*(Cat-|An|)/(Cat+|An|)  =  -0.00
                               Iterations  =  52
                                  Total H  = 1.290124e+02
                                  Total O  = 5.550622e+01

----------------------------Distribution of species----------------------------

                                               Log       Log       Log    mole V
   Species          Molality    Activity  Molality  Activity     Gamma   cm³/mol

   H+              8.295e-04   8.041e-04    -3.081    -3.095    -0.014      0.00
   OH-             1.139e-11   1.102e-11   -10.944   -10.958    -0.014     -4.11
   H2O             5.551e+01   8.755e-01     1.744    -0.058     0.000     18.07
H(0)          9.152e-18
   H2              4.576e-18   4.577e-18   -17.340   -17.339     0.000     14.99
O(0)          0.000e+00
   O2              0.000e+00   0.000e+00   -57.799   -57.799     0.000     30.40
Sg            9.000e+00
   H2Sg            5.643e+00   5.644e+00     0.751     0.752     0.000     36.27
   (H2Sg)2         1.678e+00   1.679e+00     0.225     0.225     0.000     30.09
   HSg-            8.295e-04   8.028e-04    -3.081    -3.095    -0.014     20.60

------------------------------Saturation indices-------------------------------

  Phase               SI** log IAP   log K(298 K,   1 atm)

  H2(g)           -14.24    -17.34   -3.10  H2
  H2O(g)           -1.56     -0.06    1.50  H2O
  H2Sg(g)           1.75     -6.19   -7.94  H2Sg
  O2(g)           -54.91    -57.80   -2.89  O2

**For a gas, SI = log10(fugacity). Fugacity = pressure * phi / 1 atm.
  For ideal gases, phi = 1.

------------------
End of simulation.
------------------

------------------------------------
Reading input data for simulation 3.
------------------------------------

	SELECTED_OUTPUT 2
	 active false
	SELECTED_OUTPUT 1
	 reset false
	 file H2S_numerical.in.pqi
	 new_line false
	USER_PUNCH 1
	headings dif '' number.....tc.....P_calc..m_obs..m_calc
	10  if get(1) = 0 then put(1, 1)
	20  data 0.205, 0.174, 0.147, 0.127, 0.111, 0.097, 0.086, 0.076, 0.068, 0.054, 0.043, 0.031, 0.021, 0.011, 0.008, 1.932, 1.4483, 1.0793, 0.8461, 0.6825, 0.5223, 0.306, 1.9613, 2.1741, 1.842, 1.4887, 1.2722, 1.0691, 0.819, 0.4494, 1.9701, 2.2091, 2.5341, 2.753, 2.7876, 2.5869, 2.3883, 2.0201, 1.4239, 0.676, 2.0242, 2.2403, 2.6089, 3.1645, 3.6322, 3.8084, 3.8235, 3.6576, 3.2501, 2.5257, 2.0638, 2.3276, 2.7037, 3.5511, 3.5511, 3.5511, 5.3284, 5.5584, 5.4757, 4.874, 2.1094, 2.4236, 2.7872, 3.6007, 4.6227, 5.4793, 6.3812, 7.0389, 7.2365, 7.2987, 2.1546, 2.4581, 2.8515, 3.6984, 4.9065, 5.8992, 7.8033,  2.187, 2.4922, 2.9082, 3.7183, 5.2602, 6.5191,  2.2314, 2.5637, 2.986, 3.7918, 5.5007, 6.9683, 2.3262, 2.6256, 3.2248, 4.2306, 5.7343, 7.355, 2.3789, 2.6693, 3.2946, 4.3223, 5.9335, 7.705, 2.4056, 2.7116, 3.3599, 4.4433, 6.1232, 8.0869, 2.5025, 2.7524, 3.4157, 4.5237, 6.3934, 8.4285, 2.5239, 2.7848, 3.4541, 4.5971, 6.5064, 2.554, 2.8484, 3.5112, 4.7119, 6.6309, 2.6049, 2.8835, 3.5788, 4.7674, 6.8413, 2.6155, 2.931, 3.6326, 4.8544, 7.0222, 2.7046, 3.0362, 3.7248, 5.003, 7.4328, 2.7956, 3.08, 3.8067, 5.1491, 7.6829
	30  no = get(1)
	40  dim mo(150) : restore 20 : for i = 1 to no : read mo(i) : next i : i = no
	50  pc = pressure : s = tot("Sg") : dif = (s / mo(i) - 1) * 1 #: if pressure < 190 then dif = 0
	60  punch eol$ + str_e$(dif, 20, 13), ' ', str_f$(i, 1, 0) + str_f$(tc, 5, 0) + str_f$(pc, 8, 2) + str_f$(mo(i), 8, 3) + str_f$(s, 8, 3) : put(get(2) + dif^2, 2)
	70  put(no + 1, 1)
	160 if no = 143 then punch " phi =", get(2)
	end
	USER_GRAPH 1 H2S solubility in water, data from Jiang et al., 2020
	 -plot_csv_file H2S.dat
	 -axis_titles "Temperature / Celsius" "H2S / (mol/kgw)"
	 -axis_scale x_axis 0 310
	 -axis_scale sy_axis 0 9
	 -connect_simulations false
	 10 graph_x tc # tot("Na")
	 20 y = tot("Sg") : if pressure < 2 then y = y * 10 : graph_sy y : end
	 40 data 0, 0, 0, 4, 5, 6, 7, 8, 9, 0, 0, 0, 13, 0, 0, 0, 0, 18, 0, 0, 0, 22
	 50 if sim_no > no then no = sim_no : dim p(30) : restore 40 : for i = 1 to no : read p(i) : next i
	 60 if no = p(no) then graph_sy y
	 -end

	Reading data from H2S_numerical.pqi ...
	USE solution 1
	 USE reaction_temperature 15	
	GAS_PHASE 1
	 fixed_pressure
	 volume 0.01
	H2Sg(g) 0
	H2O(g) 0
	 pressure   1    	        
	END	
-----------------------------------------
Beginning of batch-reaction calculations.
-----------------------------------------

Reaction step 1.

Using solution 1.	
Using gas phase 1.	
Using temperature 15.	

-----------------------------------Gas phase-----------------------------------

Total pressure:  1.00      atmospheres          (Peng-Robinson calculation)
    Gas volume:   1.96e+02 liters
  Molar volume:   2.22e+01 liters/mole
   P * Vm / RT:  0.98991  (Compressibility Factor Z) 

                                                        Moles in gas
                                            ----------------------------------
Component         log P           P    phi     Initial       Final       Delta

H2O(g)            -2.21   6.223e-03  0.988   0.000e+00   5.500e-02   5.500e-02
H2Sg(g)           -0.00   9.938e-01  0.990   0.000e+00   8.783e+00   8.783e+00

-----------------------------Solution composition------------------------------

	Elements           Molality       Moles

	Sg                2.169e-01   2.167e-01

----------------------------Description of solution----------------------------

                                       pH  =   4.010      Charge balance
                                       pe  =  16.861      Adjusted to redox equilibrium
      Specific Conductance (µS/cm,   0°C)  = 24
                          Density (g/cm³)  =   1.00141
                               Volume (L)  =   1.00497
                        Viscosity (mPa s)  =   1.79180
                        Activity of water  =   0.996
                 Ionic strength (mol/kgw)  =   9.877e-05
                       Mass of water (kg)  =   9.990e-01
                 Total alkalinity (eq/kg)  =   5.441e-12
                         Temperature (°C)  =   0.00
                  Electrical balance (eq)  =  -5.435e-12
 Percent error, 100*(Cat-|An|)/(Cat+|An|)  =  -0.00
                               Iterations  =  99
                                  Total H  = 1.113357e+02
                                  Total O  = 5.545122e+01

----------------------------Distribution of species----------------------------

                                               Log       Log       Log    mole V
   Species          Molality    Activity  Molality  Activity     Gamma   cm³/mol

   H+              9.877e-05   9.770e-05    -4.005    -4.010    -0.005      0.00
   OH-             1.188e-11   1.175e-11   -10.925   -10.930    -0.005     -6.19
   H2O             5.551e+01   9.963e-01     1.744    -0.002     0.000     18.02
H(0)          0.000e+00
   H2              0.000e+00   0.000e+00   -44.775   -44.775     0.000     12.27
O(0)          2.375e-12
   O2              1.187e-12   1.187e-12   -11.925   -11.925     0.000     27.49
Sg            2.169e-01
   H2Sg            2.145e-01   2.145e-01    -0.669    -0.669     0.000     26.92
   (H2Sg)2         1.136e-03   1.136e-03    -2.945    -2.945     0.000     30.91
   HSg-            9.877e-05   9.768e-05    -4.005    -4.010    -0.005     18.40

------------------------------Saturation indices-------------------------------

  Phase               SI** log IAP   log K(273 K,   1 atm)

  H2(g)           -41.75    -44.77   -3.03  H2
  H2O(g)           -2.21     -0.00    2.21  H2O	 Pressure   0.0 atm, phi 0.988
  H2Sg(g)          -0.01     -8.02   -8.01  H2Sg	 Pressure   1.0 atm, phi 0.990
  O2(g)            -9.27    -11.93   -2.66  O2

**For a gas, SI = log10(fugacity). Fugacity = pressure * phi / 1 atm.
  For ideal gases, phi = 1.

Reaction step 2.

Using solution 1.	
Using gas phase 1.	
Using temperature 15.	

-----------------------------------Gas phase-----------------------------------

Total pressure:  1.00      atmospheres          (Peng-Robinson calculation)
    Gas volume:   2.01e+02 liters
  Molar volume:   2.26e+01 liters/mole
   P * Vm / RT:  0.99037  (Compressibility Factor Z) 

                                                        Moles in gas
                                            ----------------------------------
Component         log P           P    phi     Initial       Final       Delta

H2O(g)            -2.05   8.843e-03  0.988   0.000e+00   7.868e-02   7.868e-02
H2Sg(g)           -0.00   9.912e-01  0.990   0.000e+00   8.819e+00   8.819e+00

-----------------------------Solution composition------------------------------

	Elements           Molality       Moles

	Sg                1.816e-01   1.813e-01

----------------------------Description of solution----------------------------

                                       pH  =   4.000      Charge balance
                                       pe  =   1.537      Adjusted to redox equilibrium
      Specific Conductance (µS/cm,   5°C)  = 28
                          Density (g/cm³)  =   1.00082
                               Volume (L)  =   1.00394
                        Viscosity (mPa s)  =   1.51821
                        Activity of water  =   0.997
                 Ionic strength (mol/kgw)  =   1.010e-04
                       Mass of water (kg)  =   9.986e-01
                 Total alkalinity (eq/kg)  =   5.458e-12
                         Temperature (°C)  =   5.00
                  Electrical balance (eq)  =  -5.451e-12
 Percent error, 100*(Cat-|An|)/(Cat+|An|)  =  -0.00
                               Iterations  =  61
                                  Total H  = 1.112177e+02
                                  Total O  = 5.542754e+01

----------------------------Distribution of species----------------------------

                                               Log       Log       Log    mole V
   Species          Molality    Activity  Molality  Activity     Gamma   cm³/mol

   H+              1.010e-04   9.990e-05    -3.996    -4.000    -0.005      0.00
   OH-             1.881e-11   1.860e-11   -10.726   -10.730    -0.005     -5.53
   H2O             5.551e+01   9.969e-01     1.744    -0.001     0.000     18.02
H(0)          1.477e-14
   H2              7.383e-15   7.383e-15   -14.132   -14.132     0.000     13.02
O(0)          0.000e+00
   O2              0.000e+00   0.000e+00   -71.251   -71.251     0.000     28.29
Sg            1.816e-01
   H2Sg            1.796e-01   1.796e-01    -0.746    -0.746     0.000     29.51
   (H2Sg)2         9.475e-04   9.475e-04    -3.023    -3.023     0.000     30.79
   HSg-            1.010e-04   9.988e-05    -3.996    -4.001    -0.005     19.07

------------------------------Saturation indices-------------------------------

  Phase               SI** log IAP   log K(278 K,   1 atm)

  H2(g)           -11.09    -14.13   -3.05  H2
  H2O(g)           -2.06     -0.00    2.06  H2O	 Pressure   0.0 atm, phi 0.988
  H2Sg(g)          -0.01     -8.00   -7.99  H2Sg	 Pressure   1.0 atm, phi 0.990
  O2(g)           -68.54    -71.25   -2.71  O2

**For a gas, SI = log10(fugacity). Fugacity = pressure * phi / 1 atm.
  For ideal gases, phi = 1.

Reaction step 3.

Using solution 1.	
Using gas phase 1.	
Using temperature 15.	

-----------------------------------Gas phase-----------------------------------

Total pressure:  1.00      atmospheres          (Peng-Robinson calculation)
    Gas volume:   2.06e+02 liters
  Molar volume:   2.30e+01 liters/mole
   P * Vm / RT:  0.99081  (Compressibility Factor Z) 

                                                        Moles in gas
                                            ----------------------------------
Component         log P           P    phi     Initial       Final       Delta

H2O(g)            -1.91   1.240e-02  0.989   0.000e+00   1.110e-01   1.110e-01
H2Sg(g)           -0.01   9.876e-01  0.991   0.000e+00   8.847e+00   8.847e+00

-----------------------------Solution composition------------------------------

	Elements           Molality       Moles

	Sg                1.537e-01   1.534e-01

----------------------------Description of solution----------------------------

                                       pH  =   3.992      Charge balance
                                       pe  =  16.722      Adjusted to redox equilibrium
      Specific Conductance (µS/cm,  10°C)  = 32
                          Density (g/cm³)  =   1.00010
                               Volume (L)  =   1.00313
                        Viscosity (mPa s)  =   1.30594
                        Activity of water  =   0.997
                 Ionic strength (mol/kgw)  =   1.030e-04
                       Mass of water (kg)  =   9.980e-01
                 Total alkalinity (eq/kg)  =   5.556e-12
                         Temperature (°C)  =  10.00
                  Electrical balance (eq)  =  -5.545e-12
 Percent error, 100*(Cat-|An|)/(Cat+|An|)  =  -0.00
                               Iterations  =  82
                                  Total H  = 1.110971e+02
                                  Total O  = 5.539518e+01

----------------------------Distribution of species----------------------------

                                               Log       Log       Log    mole V
   Species          Molality    Activity  Molality  Activity     Gamma   cm³/mol

   H+              1.030e-04   1.018e-04    -3.987    -3.992    -0.005      0.00
   OH-             2.915e-11   2.882e-11   -10.535   -10.540    -0.005     -5.03
   H2O             5.551e+01   9.974e-01     1.744    -0.001     0.000     18.02
H(0)          0.000e+00
   H2              0.000e+00   0.000e+00   -44.510   -44.510     0.000     13.63
O(0)          4.955e-09
   O2              2.477e-09   2.477e-09    -8.606    -8.606     0.000     28.95
Sg            1.537e-01
   H2Sg            1.520e-01   1.520e-01    -0.818    -0.818     0.000     31.64
   (H2Sg)2         7.981e-04   7.981e-04    -3.098    -3.098     0.000     30.64
   HSg-            1.030e-04   1.018e-04    -3.987    -3.992    -0.005     19.59

------------------------------Saturation indices-------------------------------

  Phase               SI** log IAP   log K(283 K,   1 atm)

  H2(g)           -41.45    -44.51   -3.06  H2
  H2O(g)           -1.91     -0.00    1.91  H2O	 Pressure   0.0 atm, phi 0.989
  H2Sg(g)          -0.01     -7.98   -7.98  H2Sg	 Pressure   1.0 atm, phi 0.991
  O2(g)            -5.84     -8.61   -2.77  O2

**For a gas, SI = log10(fugacity). Fugacity = pressure * phi / 1 atm.
  For ideal gases, phi = 1.

Reaction step 4.

WARNING: Maximum iterations exceeded, 100

WARNING: Numerical method failed with this set of convergence parameters.

WARNING: Trying smaller step size, pe step size 10, 5 ... 

Using solution 1.	
Using gas phase 1.	
Using temperature 15.	

-----------------------------------Gas phase-----------------------------------

Total pressure:  1.00      atmospheres          (Peng-Robinson calculation)
    Gas volume:   2.11e+02 liters
  Molar volume:   2.34e+01 liters/mole
   P * Vm / RT:  0.99121  (Compressibility Factor Z) 

                                                        Moles in gas
                                            ----------------------------------
Component         log P           P    phi     Initial       Final       Delta

H2O(g)            -1.77   1.715e-02  0.989   0.000e+00   1.548e-01   1.548e-01
H2Sg(g)           -0.01   9.828e-01  0.991   0.000e+00   8.869e+00   8.869e+00

-----------------------------Solution composition------------------------------

	Elements           Molality       Moles

	Sg                1.313e-01   1.310e-01

----------------------------Description of solution----------------------------

                                       pH  =   3.986      Charge balance
                                       pe  =  15.440      Adjusted to redox equilibrium
      Specific Conductance (µS/cm,  15°C)  = 36
                          Density (g/cm³)  =   0.99921
                               Volume (L)  =   1.00246
                        Viscosity (mPa s)  =   1.13760
                        Activity of water  =   0.998
                 Ionic strength (mol/kgw)  =   1.046e-04
                       Mass of water (kg)  =   9.972e-01
                 Total alkalinity (eq/kg)  =   5.531e-12
                         Temperature (°C)  =  15.00
                  Electrical balance (eq)  =  -5.516e-12
 Percent error, 100*(Cat-|An|)/(Cat+|An|)  =  -0.00
                               Iterations  = 161 (262 overall)
                                  Total H  = 1.109648e+02
                                  Total O  = 5.535143e+01

----------------------------Distribution of species----------------------------

                                               Log       Log       Log    mole V
   Species          Molality    Activity  Molality  Activity     Gamma   cm³/mol

   H+              1.046e-04   1.034e-04    -3.981    -3.986    -0.005      0.00
   OH-             4.430e-11   4.378e-11   -10.354   -10.359    -0.005     -4.64
   H2O             5.551e+01   9.978e-01     1.744    -0.001     0.000     18.03
H(0)          0.000e+00
   H2              0.000e+00   0.000e+00   -41.957   -41.957     0.000     14.15
O(0)          2.562e-12
   O2              1.281e-12   1.281e-12   -11.892   -11.892     0.000     29.51
Sg            1.313e-01
   H2Sg            1.299e-01   1.299e-01    -0.886    -0.886     0.000     33.43
   (H2Sg)2         6.780e-04   6.780e-04    -3.169    -3.169     0.000     30.48
   HSg-            1.046e-04   1.034e-04    -3.981    -3.986    -0.005     20.00

------------------------------Saturation indices-------------------------------

  Phase               SI** log IAP   log K(288 K,   1 atm)

  H2(g)           -38.88    -41.96   -3.08  H2
  H2O(g)           -1.77     -0.00    1.77  H2O	 Pressure   0.0 atm, phi 0.989
  H2Sg(g)          -0.01     -7.97   -7.96  H2Sg	 Pressure   1.0 atm, phi 0.991
  O2(g)            -9.08    -11.89   -2.81  O2

**For a gas, SI = log10(fugacity). Fugacity = pressure * phi / 1 atm.
  For ideal gases, phi = 1.

Reaction step 5.

WARNING: Maximum iterations exceeded, 100

WARNING: Numerical method failed with this set of convergence parameters.

WARNING: Trying smaller step size, pe step size 10, 5 ... 

Using solution 1.	
Using gas phase 1.	
Using temperature 15.	

-----------------------------------Gas phase-----------------------------------

Total pressure:  1.00      atmospheres          (Peng-Robinson calculation)
    Gas volume:   2.17e+02 liters
  Molar volume:   2.39e+01 liters/mole
   P * Vm / RT:  0.99159  (Compressibility Factor Z) 

                                                        Moles in gas
                                            ----------------------------------
Component         log P           P    phi     Initial       Final       Delta

H2O(g)            -1.63   2.345e-02  0.989   0.000e+00   2.134e-01   2.134e-01
H2Sg(g)           -0.01   9.766e-01  0.992   0.000e+00   8.887e+00   8.887e+00

-----------------------------Solution composition------------------------------

	Elements           Molality       Moles

	Sg                1.132e-01   1.128e-01

----------------------------Description of solution----------------------------

                                       pH  =   3.980      Charge balance
                                       pe  =  15.263      Adjusted to redox equilibrium
      Specific Conductance (µS/cm,  20°C)  = 40
                          Density (g/cm³)  =   0.99814
                               Volume (L)  =   1.00187
                        Viscosity (mPa s)  =   1.00163
                        Activity of water  =   0.998
                 Ionic strength (mol/kgw)  =   1.059e-04
                       Mass of water (kg)  =   9.962e-01
                 Total alkalinity (eq/kg)  =   5.557e-12
                         Temperature (°C)  =  20.00
                  Electrical balance (eq)  =  -5.536e-12
 Percent error, 100*(Cat-|An|)/(Cat+|An|)  =  -0.00
                               Iterations  =  66 (167 overall)
                                  Total H  = 1.108112e+02
                                  Total O  = 5.529281e+01

----------------------------Distribution of species----------------------------

                                               Log       Log       Log    mole V
   Species          Molality    Activity  Molality  Activity     Gamma   cm³/mol

   H+              1.059e-04   1.046e-04    -3.975    -3.980    -0.005      0.00
   OH-             6.608e-11   6.530e-11   -10.180   -10.185    -0.005     -4.35
   H2O             5.551e+01   9.981e-01     1.744    -0.001     0.000     18.05
H(0)          0.000e+00
   H2              0.000e+00   0.000e+00   -41.615   -41.615     0.000     14.60
O(0)          3.007e-11
   O2              1.503e-11   1.504e-11   -10.823   -10.823     0.000     29.98
Sg            1.132e-01
   H2Sg            1.120e-01   1.120e-01    -0.951    -0.951     0.000     34.96
   (H2Sg)2         5.800e-04   5.800e-04    -3.237    -3.237     0.000     30.29
   HSg-            1.059e-04   1.046e-04    -3.975    -3.980    -0.005     20.33

------------------------------Saturation indices-------------------------------

  Phase               SI** log IAP   log K(293 K,   1 atm)

  H2(g)           -38.53    -41.62   -3.09  H2
  H2O(g)           -1.63     -0.00    1.63  H2O	 Pressure   0.0 atm, phi 0.989
  H2Sg(g)          -0.01     -7.96   -7.95  H2Sg	 Pressure   1.0 atm, phi 0.992
  O2(g)            -7.97    -10.82   -2.85  O2

**For a gas, SI = log10(fugacity). Fugacity = pressure * phi / 1 atm.
  For ideal gases, phi = 1.

Reaction step 6.

Using solution 1.	
Using gas phase 1.	
Using temperature 15.	

-----------------------------------Gas phase-----------------------------------

Total pressure:  1.00      atmospheres          (Peng-Robinson calculation)
    Gas volume:   2.23e+02 liters
  Molar volume:   2.43e+01 liters/mole
   P * Vm / RT:  0.99194  (Compressibility Factor Z) 

                                                        Moles in gas
                                            ----------------------------------
Component         log P           P    phi     Initial       Final       Delta

H2O(g)            -1.50   3.169e-02  0.990   0.000e+00   2.913e-01   2.913e-01
H2Sg(g)           -0.01   9.683e-01  0.992   0.000e+00   8.902e+00   8.902e+00

-----------------------------Solution composition------------------------------

	Elements           Molality       Moles

	Sg                9.839e-02   9.788e-02

----------------------------Description of solution----------------------------

                                       pH  =   3.977      Charge balance
                                       pe  =  14.533      Adjusted to redox equilibrium
      Specific Conductance (µS/cm,  25°C)  = 43
                          Density (g/cm³)  =   0.99686
                               Volume (L)  =   1.00123
                        Viscosity (mPa s)  =   0.89005
                        Activity of water  =   0.998
                 Ionic strength (mol/kgw)  =   1.067e-04
                       Mass of water (kg)  =   9.948e-01
                 Total alkalinity (eq/kg)  =   5.580e-12
                         Temperature (°C)  =  25.00
                  Electrical balance (eq)  =  -5.550e-12
 Percent error, 100*(Cat-|An|)/(Cat+|An|)  =  -0.00
                               Iterations  =  63
                                  Total H  = 1.106256e+02
                                  Total O  = 5.521490e+01

----------------------------Distribution of species----------------------------

                                               Log       Log       Log    mole V
   Species          Molality    Activity  Molality  Activity     Gamma   cm³/mol

   H+              1.067e-04   1.055e-04    -3.972    -3.977    -0.005      0.00
   OH-             9.694e-11   9.578e-11   -10.014   -10.019    -0.005     -4.13
   H2O             5.551e+01   9.983e-01     1.744    -0.001     0.000     18.07
H(0)          0.000e+00
   H2              0.000e+00   0.000e+00   -40.170   -40.170     0.000     14.99
O(0)          1.892e-12
   O2              9.460e-13   9.460e-13   -12.024   -12.024     0.000     30.40
Sg            9.839e-02
   H2Sg            9.729e-02   9.729e-02    -1.012    -1.012     0.000     36.27
   (H2Sg)2         4.988e-04   4.988e-04    -3.302    -3.302     0.000     30.09
   HSg-            1.067e-04   1.055e-04    -3.972    -3.977    -0.005     20.58

------------------------------Saturation indices-------------------------------

  Phase               SI** log IAP   log K(298 K,   1 atm)

  H2(g)           -37.07    -40.17   -3.10  H2
  H2O(g)           -1.50     -0.00    1.50  H2O	 Pressure   0.0 atm, phi 0.990
  H2Sg(g)          -0.02     -7.95   -7.94  H2Sg	 Pressure   1.0 atm, phi 0.992
  O2(g)            -9.13    -12.02   -2.89  O2

**For a gas, SI = log10(fugacity). Fugacity = pressure * phi / 1 atm.
  For ideal gases, phi = 1.

Reaction step 7.

Using solution 1.	
Using gas phase 1.	
Using temperature 15.	

-----------------------------------Gas phase-----------------------------------

Total pressure:  1.00      atmospheres          (Peng-Robinson calculation)
    Gas volume:   2.30e+02 liters
  Molar volume:   2.47e+01 liters/mole
   P * Vm / RT:  0.99227  (Compressibility Factor Z) 

                                                        Moles in gas
                                            ----------------------------------
Component         log P           P    phi     Initial       Final       Delta

H2O(g)            -1.37   4.235e-02  0.990   0.000e+00   3.942e-01   3.942e-01
H2Sg(g)           -0.02   9.576e-01  0.992   0.000e+00   8.915e+00   8.915e+00

-----------------------------Solution composition------------------------------

	Elements           Molality       Moles

	Sg                8.605e-02   8.544e-02

----------------------------Description of solution----------------------------

                                       pH  =   3.975      Charge balance
                                       pe  =  14.398      Adjusted to redox equilibrium
      Specific Conductance (µS/cm,  30°C)  = 46
                          Density (g/cm³)  =   0.99539
                               Volume (L)  =   1.00042
                        Viscosity (mPa s)  =   0.79725
                        Activity of water  =   0.999
                 Ionic strength (mol/kgw)  =   1.072e-04
                       Mass of water (kg)  =   9.929e-01
                 Total alkalinity (eq/kg)  =   5.600e-12
                         Temperature (°C)  =  30.00
                  Electrical balance (eq)  =  -5.560e-12
 Percent error, 100*(Cat-|An|)/(Cat+|An|)  =  -0.00
                               Iterations  =  77
                                  Total H  = 1.103948e+02
                                  Total O  = 5.511197e+01

----------------------------Distribution of species----------------------------

                                               Log       Log       Log    mole V
   Species          Molality    Activity  Molality  Activity     Gamma   cm³/mol

   H+              1.072e-04   1.060e-04    -3.970    -3.975    -0.005      0.00
   OH-             1.400e-10   1.383e-10    -9.854    -9.859    -0.005     -3.97
   H2O             5.551e+01   9.985e-01     1.744    -0.001     0.000     18.09
H(0)          2.418e-40
   H2              1.209e-40   1.209e-40   -39.918   -39.918     0.000     15.34
O(0)          2.512e-11
   O2              1.256e-11   1.256e-11   -10.901   -10.901     0.000     30.77
Sg            8.605e-02
   H2Sg            8.508e-02   8.509e-02    -1.070    -1.070     0.000     37.42
   (H2Sg)2         4.305e-04   4.305e-04    -3.366    -3.366     0.000     29.87
   HSg-            1.072e-04   1.059e-04    -3.970    -3.975    -0.005     20.78

------------------------------Saturation indices-------------------------------

  Phase               SI** log IAP   log K(303 K,   1 atm)

  H2(g)           -36.81    -39.92   -3.11  H2
  H2O(g)           -1.38     -0.00    1.38  H2O	 Pressure   0.0 atm, phi 0.990
  H2Sg(g)          -0.02     -7.95   -7.93  H2Sg	 Pressure   1.0 atm, phi 0.992
  O2(g)            -7.97    -10.90   -2.93  O2

**For a gas, SI = log10(fugacity). Fugacity = pressure * phi / 1 atm.
  For ideal gases, phi = 1.

Reaction step 8.

Using solution 1.	
Using gas phase 1.	
Using temperature 15.	

-----------------------------------Gas phase-----------------------------------

Total pressure:  1.00      atmospheres          (Peng-Robinson calculation)
    Gas volume:   2.37e+02 liters
  Molar volume:   2.51e+01 liters/mole
   P * Vm / RT:  0.99257  (Compressibility Factor Z) 

                                                        Moles in gas
                                            ----------------------------------
Component         log P           P    phi     Initial       Final       Delta

H2O(g)            -1.25   5.602e-02  0.990   0.000e+00   5.296e-01   5.296e-01
H2Sg(g)           -0.03   9.440e-01  0.993   0.000e+00   8.925e+00   8.925e+00

-----------------------------Solution composition------------------------------

	Elements           Molality       Moles

	Sg                7.566e-02   7.494e-02

----------------------------Description of solution----------------------------

                                       pH  =   3.975      Charge balance
                                       pe  =  13.865      Adjusted to redox equilibrium
      Specific Conductance (µS/cm,  35°C)  = 49
                          Density (g/cm³)  =   0.99374
                               Volume (L)  =   0.99927
                        Viscosity (mPa s)  =   0.71915
                        Activity of water  =   0.999
                 Ionic strength (mol/kgw)  =   1.073e-04
                       Mass of water (kg)  =   9.905e-01
                 Total alkalinity (eq/kg)  =   5.625e-12
                         Temperature (°C)  =  35.00
                  Electrical balance (eq)  =  -5.572e-12
 Percent error, 100*(Cat-|An|)/(Cat+|An|)  =  -0.00
                               Iterations  =  64
                                  Total H  = 1.101030e+02
                                  Total O  = 5.497658e+01

----------------------------Distribution of species----------------------------

                                               Log       Log       Log    mole V
   Species          Molality    Activity  Molality  Activity     Gamma   cm³/mol

   H+              1.073e-04   1.060e-04    -3.969    -3.975    -0.005      0.00
   OH-             1.994e-10   1.970e-10    -9.700    -9.706    -0.005     -3.87
   H2O             5.551e+01   9.987e-01     1.744    -0.001     0.000     18.12
H(0)          2.693e-39
   H2              1.346e-39   1.346e-39   -38.871   -38.871     0.000     15.65
O(0)          7.501e-12
   O2              3.751e-12   3.751e-12   -11.426   -11.426     0.000     31.10
Sg            7.566e-02
   H2Sg            7.481e-02   7.481e-02    -1.126    -1.126     0.000     38.44
   (H2Sg)2         3.722e-04   3.722e-04    -3.429    -3.429     0.000     29.63
   HSg-            1.073e-04   1.060e-04    -3.969    -3.975    -0.005     20.92

------------------------------Saturation indices-------------------------------

  Phase               SI** log IAP   log K(308 K,   1 atm)

  H2(g)           -35.76    -38.87   -3.12  H2
  H2O(g)           -1.26     -0.00    1.26  H2O	 Pressure   0.1 atm, phi 0.990
  H2Sg(g)          -0.03     -7.95   -7.92  H2Sg	 Pressure   0.9 atm, phi 0.993
  O2(g)            -8.47    -11.43   -2.96  O2

**For a gas, SI = log10(fugacity). Fugacity = pressure * phi / 1 atm.
  For ideal gases, phi = 1.

Reaction step 9.

Using solution 1.	
Using gas phase 1.	
Using temperature 15.	

-----------------------------------Gas phase-----------------------------------

Total pressure:  1.00      atmospheres          (Peng-Robinson calculation)
    Gas volume:   2.46e+02 liters
  Molar volume:   2.55e+01 liters/mole
   P * Vm / RT:  0.99284  (Compressibility Factor Z) 

                                                        Moles in gas
                                            ----------------------------------
Component         log P           P    phi     Initial       Final       Delta

H2O(g)            -1.13   7.336e-02  0.991   0.000e+00   7.073e-01   7.073e-01
H2Sg(g)           -0.03   9.266e-01  0.993   0.000e+00   8.934e+00   8.934e+00

-----------------------------Solution composition------------------------------

	Elements           Molality       Moles

	Sg                6.679e-02   6.594e-02

----------------------------Description of solution----------------------------

                                       pH  =   3.976      Charge balance
                                       pe  =   1.730      Adjusted to redox equilibrium
      Specific Conductance (µS/cm,  40°C)  = 52
                          Density (g/cm³)  =   0.99190
                               Volume (L)  =   0.99758
                        Viscosity (mPa s)  =   0.65275
                        Activity of water  =   0.999
                 Ionic strength (mol/kgw)  =   1.069e-04
                       Mass of water (kg)  =   9.873e-01
                 Total alkalinity (eq/kg)  =   5.656e-12
                         Temperature (°C)  =  40.00
                  Electrical balance (eq)  =  -5.584e-12
 Percent error, 100*(Cat-|An|)/(Cat+|An|)  =  -0.00
                               Iterations  =  78
                                  Total H  = 1.097296e+02
                                  Total O  = 5.479888e+01

----------------------------Distribution of species----------------------------

                                               Log       Log       Log    mole V
   Species          Molality    Activity  Molality  Activity     Gamma   cm³/mol

   H+              1.069e-04   1.056e-04    -3.971    -3.976    -0.005      0.00
   OH-             2.805e-10   2.770e-10    -9.552    -9.557    -0.005     -3.81
   H2O             5.551e+01   9.989e-01     1.744    -0.000     0.000     18.16
H(0)          4.746e-15
   H2              2.373e-15   2.373e-15   -14.625   -14.625     0.000     15.93
O(0)          0.000e+00
   O2              0.000e+00   0.000e+00   -58.407   -58.407     0.000     31.40
Sg            6.679e-02
   H2Sg            6.604e-02   6.604e-02    -1.180    -1.180     0.000     39.35
   (H2Sg)2         3.216e-04   3.216e-04    -3.493    -3.493     0.000     29.37
   HSg-            1.069e-04   1.056e-04    -3.971    -3.977    -0.005     21.02

------------------------------Saturation indices-------------------------------

  Phase               SI** log IAP   log K(313 K,   1 atm)

  H2(g)           -11.50    -14.62   -3.12  H2
  H2O(g)           -1.14     -0.00    1.14  H2O	 Pressure   0.1 atm, phi 0.991
  H2Sg(g)          -0.04     -7.95   -7.92  H2Sg	 Pressure   0.9 atm, phi 0.993
  O2(g)           -55.42    -58.41   -2.98  O2

**For a gas, SI = log10(fugacity). Fugacity = pressure * phi / 1 atm.
  For ideal gases, phi = 1.

Reaction step 10.

WARNING: Maximum iterations exceeded, 100

WARNING: Numerical method failed with this set of convergence parameters.

WARNING: Trying smaller step size, pe step size 10, 5 ... 

Using solution 1.	
Using gas phase 1.	
Using temperature 15.	

-----------------------------------Gas phase-----------------------------------

Total pressure:  1.00      atmospheres          (Peng-Robinson calculation)
    Gas volume:   2.69e+02 liters
  Molar volume:   2.63e+01 liters/mole
   P * Vm / RT:  0.99330  (Compressibility Factor Z) 

                                                        Moles in gas
                                            ----------------------------------
Component         log P           P    phi     Initial       Final       Delta

H2O(g)            -0.91   1.224e-01  0.991   0.000e+00   1.248e+00   1.248e+00
H2Sg(g)           -0.06   8.776e-01  0.994   0.000e+00   8.949e+00   8.949e+00

-----------------------------Solution composition------------------------------

	Elements           Molality       Moles

	Sg                5.233e-02   5.115e-02

----------------------------Description of solution----------------------------

                                       pH  =   3.987      Charge balance
                                       pe  =  13.273      Adjusted to redox equilibrium
      Specific Conductance (µS/cm,  50°C)  = 56
                          Density (g/cm³)  =   0.98772
                               Volume (L)  =   0.99144
                        Viscosity (mPa s)  =   0.54654
                        Activity of water  =   0.999
                 Ionic strength (mol/kgw)  =   1.044e-04
                       Mass of water (kg)  =   9.775e-01
                 Total alkalinity (eq/kg)  =   5.715e-12
                         Temperature (°C)  =  50.00
                  Electrical balance (eq)  =  -5.586e-12
 Percent error, 100*(Cat-|An|)/(Cat+|An|)  =  -0.00
                               Iterations  = 166 (267 overall)
                                  Total H  = 1.086191e+02
                                  Total O  = 5.425842e+01

----------------------------Distribution of species----------------------------

                                               Log       Log       Log    mole V
   Species          Molality    Activity  Molality  Activity     Gamma   cm³/mol

   H+              1.044e-04   1.031e-04    -3.981    -3.987    -0.005      0.00
   OH-             5.370e-10   5.303e-10    -9.270    -9.275    -0.005     -3.82
   H2O             5.551e+01   9.991e-01     1.744    -0.000     0.000     18.23
H(0)          3.399e-38
   H2              1.700e-38   1.700e-38   -37.770   -37.770     0.000     16.42
O(0)          1.101e-09
   O2              5.504e-10   5.504e-10    -9.259    -9.259     0.000     31.92
Sg            5.233e-02
   H2Sg            5.175e-02   5.175e-02    -1.286    -1.286     0.000     40.92
   (H2Sg)2         2.368e-04   2.368e-04    -3.626    -3.626     0.000     28.78
   HSg-            1.044e-04   1.031e-04    -3.981    -3.987    -0.005     21.11

------------------------------Saturation indices-------------------------------

  Phase               SI** log IAP   log K(323 K,   1 atm)

  H2(g)           -34.64    -37.77   -3.13  H2
  H2O(g)           -0.92     -0.00    0.92  H2O	 Pressure   0.1 atm, phi 0.991
  H2Sg(g)          -0.06     -7.97   -7.91  H2Sg	 Pressure   0.9 atm, phi 0.994
  O2(g)            -6.23     -9.26   -3.03  O2

**For a gas, SI = log10(fugacity). Fugacity = pressure * phi / 1 atm.
  For ideal gases, phi = 1.

Reaction step 11.

Using solution 1.	
Using gas phase 1.	
Using temperature 15.	

-----------------------------------Gas phase-----------------------------------

Total pressure:  1.00      atmospheres          (Peng-Robinson calculation)
    Gas volume:   3.03e+02 liters
  Molar volume:   2.72e+01 liters/mole
   P * Vm / RT:  0.99362  (Compressibility Factor Z) 

                                                        Moles in gas
                                            ----------------------------------
Component         log P           P    phi     Initial       Final       Delta

H2O(g)            -0.71   1.972e-01  0.991   0.000e+00   2.202e+00   2.202e+00
H2Sg(g)           -0.10   8.028e-01  0.994   0.000e+00   8.961e+00   8.961e+00

-----------------------------Solution composition------------------------------

	Elements           Molality       Moles

	Sg                4.069e-02   3.908e-02

----------------------------Description of solution----------------------------

                                       pH  =   4.008      Charge balance
                                       pe  =   1.530      Adjusted to redox equilibrium
      Specific Conductance (µS/cm,  60°C)  = 59
                          Density (g/cm³)  =   0.98290
                               Volume (L)  =   0.97839
                        Viscosity (mPa s)  =   0.46605
                        Activity of water  =   0.999
                 Ionic strength (mol/kgw)  =   9.933e-05
                       Mass of water (kg)  =   9.603e-01
                 Total alkalinity (eq/kg)  =   5.813e-12
                         Temperature (°C)  =  60.00
                  Electrical balance (eq)  =  -5.583e-12
 Percent error, 100*(Cat-|An|)/(Cat+|An|)  =  -0.00
                               Iterations  =  75
                                  Total H  = 1.066874e+02
                                  Total O  = 5.330460e+01

----------------------------Distribution of species----------------------------

                                               Log       Log       Log    mole V
   Species          Molality    Activity  Molality  Activity     Gamma   cm³/mol

   H+              9.933e-05   9.813e-05    -4.003    -4.008    -0.005      0.00
   OH-             9.954e-10   9.832e-10    -9.002    -9.007    -0.005     -3.98
   H2O             5.551e+01   9.993e-01     1.744    -0.000     0.000     18.32
H(0)          8.692e-15
   H2              4.346e-15   4.346e-15   -14.362   -14.362     0.000     16.86
O(0)          0.000e+00
   O2              0.000e+00   0.000e+00   -53.425   -53.425     0.000     32.38
Sg            4.069e-02
   H2Sg            4.026e-02   4.026e-02    -1.395    -1.395     0.000     42.24
   (H2Sg)2         1.668e-04   1.668e-04    -3.778    -3.778     0.000     28.10
   HSg-            9.933e-05   9.811e-05    -4.003    -4.008    -0.005     21.07

------------------------------Saturation indices-------------------------------

  Phase               SI** log IAP   log K(333 K,   1 atm)

  H2(g)           -11.23    -14.36   -3.13  H2
  H2O(g)           -0.71     -0.00    0.71  H2O	 Pressure   0.2 atm, phi 0.991
  H2Sg(g)          -0.10     -8.02   -7.92  H2Sg	 Pressure   0.8 atm, phi 0.994
  O2(g)           -50.36    -53.42   -3.06  O2

**For a gas, SI = log10(fugacity). Fugacity = pressure * phi / 1 atm.
  For ideal gases, phi = 1.

Reaction step 12.

Using solution 1.	
Using gas phase 1.	
Using temperature 15.	

-----------------------------------Gas phase-----------------------------------

Total pressure:  1.00      atmospheres          (Peng-Robinson calculation)
    Gas volume:   3.63e+02 liters
  Molar volume:   2.80e+01 liters/mole
   P * Vm / RT:  0.99374  (Compressibility Factor Z) 

                                                        Moles in gas
                                            ----------------------------------
Component         log P           P    phi     Initial       Final       Delta

H2O(g)            -0.51   3.081e-01  0.991   0.000e+00   3.995e+00   3.995e+00
H2Sg(g)           -0.16   6.919e-01  0.995   0.000e+00   8.972e+00   8.972e+00

-----------------------------Solution composition------------------------------

	Elements           Molality       Moles

	Sg                3.056e-02   2.836e-02

----------------------------Description of solution----------------------------

                                       pH  =   4.046      Charge balance
                                       pe  =  11.626      Adjusted to redox equilibrium
      Specific Conductance (µS/cm,  70°C)  = 58
                          Density (g/cm³)  =   0.97752
                               Volume (L)  =   0.95036
                        Viscosity (mPa s)  =   0.40356
                        Activity of water  =   0.999
                 Ionic strength (mol/kgw)  =   9.100e-05
                       Mass of water (kg)  =   9.280e-01
                 Total alkalinity (eq/kg)  =   6.024e-12
                         Temperature (°C)  =  70.00
                  Electrical balance (eq)  =  -5.591e-12
 Percent error, 100*(Cat-|An|)/(Cat+|An|)  =  -0.00
                               Iterations  =  65
                                  Total H  = 1.030795e+02
                                  Total O  = 5.151139e+01

----------------------------Distribution of species----------------------------

                                               Log       Log       Log    mole V
   Species          Molality    Activity  Molality  Activity     Gamma   cm³/mol

   H+              9.100e-05   8.992e-05    -4.041    -4.046    -0.005      0.00
   OH-             1.818e-09   1.796e-09    -8.740    -8.746    -0.005     -4.28
   H2O             5.551e+01   9.995e-01     1.744    -0.000     0.000     18.43
H(0)          4.333e-35
   H2              2.167e-35   2.167e-35   -34.664   -34.664     0.000     17.25
O(0)          8.635e-11
   O2              4.317e-11   4.317e-11   -10.365   -10.365     0.000     32.79
Sg            3.056e-02
   H2Sg            3.025e-02   3.025e-02    -1.519    -1.519     0.000     43.37
   (H2Sg)2         1.067e-04   1.067e-04    -3.972    -3.972     0.000     27.32
   HSg-            9.100e-05   8.990e-05    -4.041    -4.046    -0.005     20.91

------------------------------Saturation indices-------------------------------

  Phase               SI** log IAP   log K(343 K,   1 atm)

  H2(g)           -31.54    -34.66   -3.12  H2
  H2O(g)           -0.52     -0.00    0.51  H2O	 Pressure   0.3 atm, phi 0.991
  H2Sg(g)          -0.16     -8.09   -7.93  H2Sg	 Pressure   0.7 atm, phi 0.995
  O2(g)            -7.28    -10.36   -3.09  O2

**For a gas, SI = log10(fugacity). Fugacity = pressure * phi / 1 atm.
  For ideal gases, phi = 1.

Reaction step 13.

Using solution 1.	
Using gas phase 1.	
Using temperature 15.	

-----------------------------------Gas phase-----------------------------------

Total pressure:  1.00      atmospheres          (Peng-Robinson calculation)
    Gas volume:   4.86e+02 liters
  Molar volume:   2.88e+01 liters/mole
   P * Vm / RT:  0.99354  (Compressibility Factor Z) 

                                                        Moles in gas
                                            ----------------------------------
Component         log P           P    phi     Initial       Final       Delta

H2O(g)            -0.33   4.676e-01  0.991   0.000e+00   7.890e+00   7.890e+00
H2Sg(g)           -0.27   5.324e-01  0.996   0.000e+00   8.982e+00   8.982e+00

-----------------------------Solution composition------------------------------

	Elements           Molality       Moles

	Sg                2.094e-02   1.796e-02

----------------------------Description of solution----------------------------

                                       pH  =   4.112      Charge balance
                                       pe  =   1.352      Adjusted to redox equilibrium
      Specific Conductance (µS/cm,  80°C)  = 53
                          Density (g/cm³)  =   0.97161
                               Volume (L)  =   0.88355
                        Viscosity (mPa s)  =   0.35406
                        Activity of water  =   1.000
                 Ionic strength (mol/kgw)  =   7.815e-05
                       Mass of water (kg)  =   8.578e-01
                 Total alkalinity (eq/kg)  =   6.484e-12
                         Temperature (°C)  =  80.00
                  Electrical balance (eq)  =  -5.562e-12
 Percent error, 100*(Cat-|An|)/(Cat+|An|)  =  -0.00
                               Iterations  =  73
                                  Total H  = 9.526776e+01
                                  Total O  = 4.761592e+01

----------------------------Distribution of species----------------------------

                                               Log       Log       Log    mole V
   Species          Molality    Activity  Molality  Activity     Gamma   cm³/mol

   H+              7.815e-05   7.727e-05    -4.107    -4.112    -0.005      0.00
   OH-             3.374e-09   3.335e-09    -8.472    -8.477    -0.005     -4.70
   H2O             5.551e+01   9.996e-01     1.744    -0.000     0.000     18.54
H(0)          1.053e-14
   H2              5.263e-15   5.264e-15   -14.279   -14.279     0.000     17.61
O(0)          0.000e+00
   O2              0.000e+00   0.000e+00   -48.863   -48.863     0.000     33.17
Sg            2.094e-02
   H2Sg            2.075e-02   2.075e-02    -1.683    -1.683     0.000     44.39
   HSg-            7.814e-05   7.725e-05    -4.107    -4.112    -0.005     20.64
   (H2Sg)2         5.545e-05   5.545e-05    -4.256    -4.256     0.000     26.43

------------------------------Saturation indices-------------------------------

  Phase               SI** log IAP   log K(353 K,   1 atm)

  H2(g)           -11.16    -14.28   -3.12  H2
  H2O(g)           -0.33     -0.00    0.33  H2O	 Pressure   0.5 atm, phi 0.991
  H2Sg(g)          -0.28     -8.22   -7.95  H2Sg	 Pressure   0.5 atm, phi 0.996
  O2(g)           -45.76    -48.86   -3.11  O2

**For a gas, SI = log10(fugacity). Fugacity = pressure * phi / 1 atm.
  For ideal gases, phi = 1.

Reaction step 14.

Using solution 1.	
Using gas phase 1.	
Using temperature 15.	

-----------------------------------Gas phase-----------------------------------

Total pressure:  1.00      atmospheres          (Peng-Robinson calculation)
    Gas volume:   8.62e+02 liters
  Molar volume:   2.96e+01 liters/mole
   P * Vm / RT:  0.99284  (Compressibility Factor Z) 

                                                        Moles in gas
                                            ----------------------------------
Component         log P           P    phi     Initial       Final       Delta

H2O(g)            -0.16   6.913e-01  0.991   0.000e+00   2.014e+01   2.014e+01
H2Sg(g)           -0.51   3.087e-01  0.997   0.000e+00   8.993e+00   8.993e+00

-----------------------------Solution composition------------------------------

	Elements           Molality       Moles

	Sg                1.104e-02   7.034e-03

----------------------------Description of solution----------------------------

                                       pH  =   4.242      Charge balance
                                       pe  =   1.089      Adjusted to redox equilibrium
      Specific Conductance (µS/cm,  90°C)  = 41
                          Density (g/cm³)  =   0.96521
                               Volume (L)  =   0.66036
                        Viscosity (mPa s)  =   0.31419
                        Activity of water  =   1.000
                 Ionic strength (mol/kgw)  =   5.781e-05
                       Mass of water (kg)  =   6.371e-01
                 Total alkalinity (eq/kg)  =   8.723e-12
                         Temperature (°C)  =  90.00
                  Electrical balance (eq)  =  -5.558e-12
 Percent error, 100*(Cat-|An|)/(Cat+|An|)  =  -0.00
                               Iterations  =  85
                                  Total H  = 7.074517e+01
                                  Total O  = 3.536555e+01

----------------------------Distribution of species----------------------------

                                               Log       Log       Log    mole V
   Species          Molality    Activity  Molality  Activity     Gamma   cm³/mol

   H+              5.781e-05   5.724e-05    -4.238    -4.242    -0.004      0.00
   OH-             6.947e-09   6.877e-09    -8.158    -8.163    -0.004     -5.25
   H2O             5.551e+01   9.998e-01     1.744    -0.000     0.000     18.66
H(0)          1.812e-14
   H2              9.060e-15   9.060e-15   -14.043   -14.043     0.000     17.97
O(0)          0.000e+00
   O2              0.000e+00   0.000e+00   -47.235   -47.235     0.000     33.54
Sg            1.104e-02
   H2Sg            1.095e-02   1.095e-02    -1.961    -1.961     0.000     45.31
   HSg-            5.781e-05   5.722e-05    -4.238    -4.242    -0.004     20.26
   (H2Sg)2         1.666e-05   1.666e-05    -4.778    -4.778     0.000     25.40

------------------------------Saturation indices-------------------------------

  Phase               SI** log IAP   log K(363 K,   1 atm)

  H2(g)           -10.94    -14.04   -3.10  H2
  H2O(g)           -0.16     -0.00    0.16  H2O	 Pressure   0.7 atm, phi 0.991
  H2Sg(g)          -0.51     -8.48   -7.97  H2Sg	 Pressure   0.3 atm, phi 0.997
  O2(g)           -44.12    -47.23   -3.11  O2

**For a gas, SI = log10(fugacity). Fugacity = pressure * phi / 1 atm.
  For ideal gases, phi = 1.

Reaction step 15.

WARNING: Maximum iterations exceeded, 100

WARNING: Numerical method failed with this set of convergence parameters.

WARNING: Trying smaller step size, pe step size 10, 5 ... 

WARNING: Maximum iterations exceeded, 200

WARNING: Numerical method failed with this set of convergence parameters.

WARNING: Trying reduced tolerance 1e-16 ...

Using solution 1.	
Using gas phase 1.	
Using temperature 15.	

-----------------------------------Gas phase-----------------------------------

Total pressure:  1.00      atmospheres          (Peng-Robinson calculation)
    Gas volume:   1.36e+03 liters
  Molar volume:   2.99e+01 liters/mole
   P * Vm / RT:  0.99236  (Compressibility Factor Z) 

                                                        Moles in gas
                                            ----------------------------------
Component         log P           P    phi     Initial       Final       Delta

H2O(g)            -0.10   8.027e-01  0.991   0.000e+00   3.661e+01   3.661e+01
H2Sg(g)           -0.70   1.973e-01  0.998   0.000e+00   8.998e+00   8.998e+00

-----------------------------Solution composition------------------------------

	Elements           Molality       Moles

	Sg                6.833e-03   2.326e-03

----------------------------Description of solution----------------------------

                                       pH  =   4.345      Charge balance
                                       pe  =   0.765      Adjusted to redox equilibrium
      Specific Conductance (µS/cm,  94°C)  = 33
                          Density (g/cm³)  =   0.96252
                               Volume (L)  =   0.35382
                        Viscosity (mPa s)  =   0.30038
                        Activity of water  =   1.000
                 Ionic strength (mol/kgw)  =   4.559e-05
                       Mass of water (kg)  =   3.405e-01
                 Total alkalinity (eq/kg)  =   1.630e-11
                         Temperature (°C)  =  94.00
                  Electrical balance (eq)  =  -5.550e-12
 Percent error, 100*(Cat-|An|)/(Cat+|An|)  =  -0.00
                               Iterations  = 105 (407 overall)
                                  Total H  = 3.780228e+01
                                  Total O  = 1.889881e+01

----------------------------Distribution of species----------------------------

                                               Log       Log       Log    mole V
   Species          Molality    Activity  Molality  Activity     Gamma   cm³/mol

   H+              4.559e-05   4.518e-05    -4.341    -4.345    -0.004      0.00
   OH-             1.030e-08   1.021e-08    -7.987    -7.991    -0.004     -5.51
   H2O             5.551e+01   9.999e-01     1.744    -0.000     0.000     18.72
H(0)          4.885e-14
   H2              2.443e-14   2.443e-14   -13.612   -13.612     0.000     18.11
O(0)          0.000e+00
   O2              0.000e+00   0.000e+00   -47.302   -47.302     0.000     33.68
Sg            6.833e-03
   H2Sg            6.774e-03   6.774e-03    -2.169    -2.169     0.000     45.66
   HSg-            4.558e-05   4.516e-05    -4.341    -4.345    -0.004     20.08
   (H2Sg)2         6.535e-06   6.535e-06    -5.185    -5.185     0.000     24.95

------------------------------Saturation indices-------------------------------

  Phase               SI** log IAP   log K(367 K,   1 atm)

  H2(g)           -10.52    -13.61   -3.10  H2
  H2O(g)           -0.10     -0.00    0.10  H2O	 Pressure   0.8 atm, phi 0.991
  H2Sg(g)          -0.71     -8.69   -7.98  H2Sg	 Pressure   0.2 atm, phi 0.998
  O2(g)           -44.19    -47.30   -3.11  O2

**For a gas, SI = log10(fugacity). Fugacity = pressure * phi / 1 atm.
  For ideal gases, phi = 1.

------------------
End of simulation.
------------------

------------------------------------
Reading input data for simulation 4.
------------------------------------

	USE solution 1
	 USE reaction_temperature 7	
	GAS_PHASE 1
	 fixed_pressure
	 volume 0.01
	H2Sg(g) 0
	H2O(g) 0
	 pressure   29.6 	
	USER_GRAPH 1
	 -headings x	        
	END	
-----------------------------------------
Beginning of batch-reaction calculations.
-----------------------------------------

Reaction step 1.

Using solution 1.	
Using gas phase 1.	
Using temperature 7.	

-----------------------------------Gas phase-----------------------------------

Total pressure: 29.60      atmospheres          (Peng-Robinson calculation)
    Gas volume:   3.94e+00 liters
  Molar volume:   6.02e-01 liters/mole
   P * Vm / RT:  0.71666  (Compressibility Factor Z) 

                                                        Moles in gas
                                            ----------------------------------
Component         log P           P    phi     Initial       Final       Delta

H2O(g)            -1.24   5.714e-02  0.722   0.000e+00   1.264e-02   1.264e-02
H2Sg(g)            1.47   2.954e+01  0.780   0.000e+00   6.535e+00   6.535e+00

-----------------------------Solution composition------------------------------

	Elements           Molality       Moles

	Sg                2.466e+00   2.465e+00

----------------------------Description of solution----------------------------

                                       pH  =   3.287      Charge balance
                                       pe  =   2.133      Adjusted to redox equilibrium
      Specific Conductance (µS/cm,  30°C)  = 198
                          Density (g/cm³)  =   1.00000
                               Volume (L)  =   1.08378
                        Viscosity (mPa s)  =   0.79726
                        Activity of water  =   0.962
                 Ionic strength (mol/kgw)  =   5.291e-04
                       Mass of water (kg)  =   9.998e-01
                 Total alkalinity (eq/kg)  =   5.572e-12
                         Temperature (°C)  =  30.00
                           Pressure (atm)  = 29.60
                  Electrical balance (eq)  =  -5.570e-12
 Percent error, 100*(Cat-|An|)/(Cat+|An|)  =  -0.00
                               Iterations  =  98
                                  Total H  = 1.159175e+02
                                  Total O  = 5.549358e+01

----------------------------Distribution of species----------------------------

                                               Log       Log       Log    mole V
   Species          Molality    Activity  Molality  Activity     Gamma   cm³/mol

   H+              5.291e-04   5.158e-04    -3.276    -3.287    -0.011      0.00
   OH-             2.884e-11   2.809e-11   -10.540   -10.552    -0.012     -3.89
   H2O             5.551e+01   9.622e-01     1.744    -0.017     0.000     18.07
H(0)          1.913e-14
   H2              9.567e-15   9.568e-15   -14.019   -14.019     0.000     15.35
O(0)          0.000e+00
   O2              0.000e+00   0.000e+00   -62.743   -62.742     0.000     30.72
Sg            2.466e+00
   H2Sg            1.977e+00   1.977e+00     0.296     0.296     0.000     37.08
   (H2Sg)2         2.442e-01   2.442e-01    -0.612    -0.612     0.000     31.19
   HSg-            5.291e-04   5.153e-04    -3.276    -3.288    -0.012     20.80

------------------------------Saturation indices-------------------------------

  Phase               SI** log IAP   log K(303 K,  30 atm)

  H2(g)           -10.90    -14.02   -3.12  H2
  H2O(g)           -1.38     -0.02    1.37  H2O	 Pressure   0.1 atm, phi 0.722
  H2Sg(g)           1.36     -6.58   -7.94  H2Sg	 Pressure  29.5 atm, phi 0.780
  O2(g)           -59.80    -62.74   -2.94  O2

**For a gas, SI = log10(fugacity). Fugacity = pressure * phi / 1 atm.
  For ideal gases, phi = 1.

Reaction step 2.

Using solution 1.	
Using gas phase 1.	
Using temperature 7.	

-----------------------------------Gas phase-----------------------------------

Total pressure: 29.60      atmospheres          (Peng-Robinson calculation)
    Gas volume:   5.60e+00 liters
  Molar volume:   7.38e-01 liters/mole
   P * Vm / RT:  0.79955  (Compressibility Factor Z) 

                                                        Moles in gas
                                            ----------------------------------
Component         log P           P    phi     Initial       Final       Delta

H2O(g)            -0.60   2.486e-01  0.784   0.000e+00   6.371e-02   6.371e-02
H2Sg(g)            1.47   2.935e+01  0.831   0.000e+00   7.523e+00   7.523e+00

-----------------------------Solution composition------------------------------

	Elements           Molality       Moles

	Sg                1.479e+00   1.477e+00

----------------------------Description of solution----------------------------

                                       pH  =   3.270      Charge balance
                                       pe  =  13.464      Adjusted to redox equilibrium
      Specific Conductance (µS/cm,  60°C)  = 296
                          Density (g/cm³)  =   0.98215
                               Volume (L)  =   1.06827
                        Viscosity (mPa s)  =   0.46680
                        Activity of water  =   0.977
                 Ionic strength (mol/kgw)  =   5.516e-04
                       Mass of water (kg)  =   9.989e-01
                 Total alkalinity (eq/kg)  =   5.558e-12
                         Temperature (°C)  =  60.00
                           Pressure (atm)  = 29.60
                  Electrical balance (eq)  =  -5.552e-12
 Percent error, 100*(Cat-|An|)/(Cat+|An|)  =  -0.00
                               Iterations  =  66
                                  Total H  = 1.138398e+02
                                  Total O  = 5.544251e+01

----------------------------Distribution of species----------------------------

                                               Log       Log       Log    mole V
   Species          Molality    Activity  Molality  Activity     Gamma   cm³/mol

   H+              5.516e-04   5.366e-04    -3.258    -3.270    -0.012      0.00
   OH-             1.852e-10   1.800e-10    -9.732    -9.745    -0.012     -4.03
   H2O             5.551e+01   9.774e-01     1.744    -0.010     0.000     18.30
H(0)          3.465e-37
   H2              1.733e-37   1.733e-37   -36.761   -36.761     0.000     16.84
O(0)          4.389e-09
   O2              2.195e-09   2.195e-09    -8.659    -8.659     0.000     32.31
Sg            1.479e+00
   H2Sg            1.177e+00   1.177e+00     0.071     0.071     0.000     41.84
   (H2Sg)2         1.509e-01   1.509e-01    -0.821    -0.821     0.000     29.45
   HSg-            5.516e-04   5.360e-04    -3.258    -3.271    -0.012     21.09

------------------------------Saturation indices-------------------------------

  Phase               SI** log IAP   log K(333 K,  30 atm)

  H2(g)           -33.62    -36.76   -3.14  H2
  H2O(g)           -0.71     -0.01    0.70  H2O	 Pressure   0.2 atm, phi 0.784
  H2Sg(g)           1.39     -6.54   -7.93  H2Sg	 Pressure  29.4 atm, phi 0.831
  O2(g)            -5.58     -8.66   -3.08  O2

**For a gas, SI = log10(fugacity). Fugacity = pressure * phi / 1 atm.
  For ideal gases, phi = 1.

Reaction step 3.

Using solution 1.	
Using gas phase 1.	
Using temperature 7.	

-----------------------------------Gas phase-----------------------------------

Total pressure: 29.60      atmospheres          (Peng-Robinson calculation)
    Gas volume:   6.98e+00 liters
  Molar volume:   8.55e-01 liters/mole
   P * Vm / RT:  0.84906  (Compressibility Factor Z) 

                                                        Moles in gas
                                            ----------------------------------
Component         log P           P    phi     Initial       Final       Delta

H2O(g)            -0.08   8.314e-01  0.825   0.000e+00   2.295e-01   2.295e-01
H2Sg(g)            1.46   2.877e+01  0.867   0.000e+00   7.941e+00   7.941e+00

-----------------------------Solution composition------------------------------

	Elements           Molality       Moles

	Sg                1.063e+00   1.059e+00

----------------------------Description of solution----------------------------

                                       pH  =   3.292      Charge balance
                                       pe  =  10.947      Adjusted to redox equilibrium
      Specific Conductance (µS/cm,  90°C)  = 351
                          Density (g/cm³)  =   0.96349
                               Volume (L)  =   1.07105
                        Viscosity (mPa s)  =   0.31503
                        Activity of water  =   0.984
                 Ionic strength (mol/kgw)  =   5.254e-04
                       Mass of water (kg)  =   9.959e-01
                 Total alkalinity (eq/kg)  =   5.615e-12
                         Temperature (°C)  =  90.00
                           Pressure (atm)  = 29.60
                  Electrical balance (eq)  =  -5.592e-12
 Percent error, 100*(Cat-|An|)/(Cat+|An|)  =  -0.00
                               Iterations  =  59
                                  Total H  = 1.126713e+02
                                  Total O  = 5.527671e+01

----------------------------Distribution of species----------------------------

                                               Log       Log       Log    mole V
   Species          Molality    Activity  Molality  Activity     Gamma   cm³/mol

   H+              5.254e-04   5.105e-04    -3.280    -3.292    -0.013      0.00
   OH-             8.000e-10   7.764e-10    -9.097    -9.110    -0.013     -5.35
   H2O             5.551e+01   9.837e-01     1.744    -0.007     0.000     18.64
H(0)          2.717e-32
   H2              1.358e-32   1.359e-32   -31.867   -31.867     0.000     17.93
O(0)          4.860e-12
   O2              2.430e-12   2.431e-12   -11.614   -11.614     0.000     33.45
Sg            1.063e+00
   H2Sg            8.497e-01   8.498e-01    -0.071    -0.071     0.000     44.87
   (H2Sg)2         1.066e-01   1.066e-01    -0.972    -0.972     0.000     26.79
   HSg-            5.254e-04   5.099e-04    -3.280    -3.293    -0.013     20.30

------------------------------Saturation indices-------------------------------

  Phase               SI** log IAP   log K(363 K,  30 atm)

  H2(g)           -28.76    -31.87   -3.11  H2
  H2O(g)           -0.16     -0.01    0.16  H2O	 Pressure   0.8 atm, phi 0.825
  H2Sg(g)           1.40     -6.58   -7.98  H2Sg	 Pressure  28.8 atm, phi 0.867
  O2(g)            -8.49    -11.61   -3.13  O2

**For a gas, SI = log10(fugacity). Fugacity = pressure * phi / 1 atm.
  For ideal gases, phi = 1.

Reaction step 4.

Using solution 1.	
Using gas phase 1.	
Using temperature 7.	

-----------------------------------Gas phase-----------------------------------

Total pressure: 29.60      atmospheres          (Peng-Robinson calculation)
    Gas volume:   8.49e+00 liters
  Molar volume:   9.60e-01 liters/mole
   P * Vm / RT:  0.88118  (Compressibility Factor Z) 

                                                        Moles in gas
                                            ----------------------------------
Component         log P           P    phi     Initial       Final       Delta

H2O(g)             0.36   2.270e+00  0.852   0.000e+00   6.776e-01   6.776e-01
H2Sg(g)            1.44   2.733e+01  0.894   0.000e+00   8.160e+00   8.160e+00

-----------------------------Solution composition------------------------------

	Elements           Molality       Moles

	Sg                8.507e-01   8.403e-01

----------------------------Description of solution----------------------------

                                       pH  =   3.350      Charge balance
                                       pe  =   9.635      Adjusted to redox equilibrium
      Specific Conductance (µS/cm, 120°C)  = 352
                          Density (g/cm³)  =   0.94118
                               Volume (L)  =   1.07995
                        Viscosity (mPa s)  =   0.23283
                        Activity of water  =   0.987
                 Ionic strength (mol/kgw)  =   4.604e-04
                       Mass of water (kg)  =   9.878e-01
                 Total alkalinity (eq/kg)  =   5.637e-12
                         Temperature (°C)  = 120.00
                           Pressure (atm)  = 29.60
                  Electrical balance (eq)  =  -5.568e-12
 Percent error, 100*(Cat-|An|)/(Cat+|An|)  =  -0.00
                               Iterations  =  59
                                  Total H  = 1.113377e+02
                                  Total O  = 5.482859e+01

----------------------------Distribution of species----------------------------

                                               Log       Log       Log    mole V
   Species          Molality    Activity  Molality  Activity     Gamma   cm³/mol

   H+              4.604e-04   4.472e-04    -3.337    -3.350    -0.013      0.00
   OH-             2.599e-09   2.521e-09    -8.585    -8.598    -0.013     -7.88
   H2O             5.551e+01   9.869e-01     1.744    -0.006     0.000     19.07
H(0)          7.301e-30
   H2              3.650e-30   3.651e-30   -29.438   -29.438     0.000     18.99
O(0)          1.552e-11
   O2              7.760e-12   7.761e-12   -11.110   -11.110     0.000     34.53
Sg            8.507e-01
   H2Sg            6.921e-01   6.921e-01    -0.160    -0.160     0.000     47.34
   (H2Sg)2         7.907e-02   7.908e-02    -1.102    -1.102     0.000     22.77
   HSg-            4.604e-04   4.466e-04    -3.337    -3.350    -0.013     18.52

------------------------------Saturation indices-------------------------------

  Phase               SI** log IAP   log K(393 K,  30 atm)

  H2(g)           -26.39    -29.44   -3.05  H2
  H2O(g)            0.29     -0.01   -0.29  H2O	 Pressure   2.3 atm, phi 0.852
  H2Sg(g)           1.39     -6.70   -8.09  H2Sg	 Pressure  27.3 atm, phi 0.894
  O2(g)            -8.00    -11.11   -3.11  O2

**For a gas, SI = log10(fugacity). Fugacity = pressure * phi / 1 atm.
  For ideal gases, phi = 1.

Reaction step 5.

Using solution 1.	
Using gas phase 1.	
Using temperature 7.	

-----------------------------------Gas phase-----------------------------------

Total pressure: 29.60      atmospheres          (Peng-Robinson calculation)
    Gas volume:   1.07e+01 liters
  Molar volume:   1.06e+00 liters/mole
   P * Vm / RT:  0.90114  (Compressibility Factor Z) 

                                                        Moles in gas
                                            ----------------------------------
Component         log P           P    phi     Initial       Final       Delta

H2O(g)             0.72   5.278e+00  0.868   0.000e+00   1.805e+00   1.805e+00
H2Sg(g)            1.39   2.432e+01  0.917   0.000e+00   8.320e+00   8.320e+00

-----------------------------Solution composition------------------------------

	Elements           Molality       Moles

	Sg                7.033e-01   6.804e-01

----------------------------Description of solution----------------------------

                                       pH  =   3.445      Charge balance
                                       pe  =   8.279      Adjusted to redox equilibrium
      Specific Conductance (µS/cm, 150°C)  = 307
                          Density (g/cm³)  =   0.91491
                               Volume (L)  =   1.08279
                        Viscosity (mPa s)  =   0.18329
                        Activity of water  =   0.989
                 Ionic strength (mol/kgw)  =   3.691e-04
                       Mass of water (kg)  =   9.675e-01
                 Total alkalinity (eq/kg)  =   5.740e-12
                         Temperature (°C)  = 150.00
                           Pressure (atm)  = 29.60
                  Electrical balance (eq)  =  -5.553e-12
 Percent error, 100*(Cat-|An|)/(Cat+|An|)  =  -0.00
                               Iterations  =  70
                                  Total H  = 1.087622e+02
                                  Total O  = 5.370072e+01

----------------------------Distribution of species----------------------------

                                               Log       Log       Log    mole V
   Species          Molality    Activity  Molality  Activity     Gamma   cm³/mol

   H+              3.691e-04   3.587e-04    -3.433    -3.445    -0.012      0.00
   OH-             6.872e-09   6.671e-09    -8.163    -8.176    -0.013    -12.09
   H2O             5.551e+01   9.890e-01     1.744    -0.005     0.000     19.62
H(0)          2.065e-27
   H2              1.033e-27   1.033e-27   -26.986   -26.986     0.000     20.24
O(0)          2.544e-12
   O2              1.272e-12   1.272e-12   -11.895   -11.895     0.000     35.79
Sg            7.033e-01
   H2Sg            5.916e-01   5.917e-01    -0.228    -0.228     0.000     49.81
   (H2Sg)2         5.563e-02   5.564e-02    -1.255    -1.255     0.000     16.62
   HSg-            3.691e-04   3.583e-04    -3.433    -3.446    -0.013     15.41

------------------------------Saturation indices-------------------------------

  Phase               SI** log IAP   log K(423 K,  30 atm)

  H2(g)           -24.03    -26.99   -2.96  H2
  H2O(g)            0.66     -0.00   -0.67  H2O	 Pressure   5.3 atm, phi 0.868
  H2Sg(g)           1.35     -6.89   -8.24  H2Sg	 Pressure  24.3 atm, phi 0.917
  O2(g)            -8.84    -11.90   -3.05  O2

**For a gas, SI = log10(fugacity). Fugacity = pressure * phi / 1 atm.
  For ideal gases, phi = 1.

Reaction step 6.

Using solution 1.	
Using gas phase 1.	
Using temperature 7.	

[...]
                  Electrical balance (eq)  =  -1.111e-12
 Percent error, 100*(Cat-|An|)/(Cat+|An|)  =  -0.00
                               Iterations  = 170 (271 overall)
                                  Total H  = 1.115044e+02
                                  Total O  = 5.550622e+01

----------------------------Distribution of species----------------------------

                                               Log       Log       Log    mole V
   Species          Molality    Activity  Molality  Activity     Gamma   cm³/mol

   H+              1.822e-04   1.795e-04    -3.740    -3.746    -0.007      0.00
   OH-             7.638e-11   7.521e-11   -10.117   -10.124    -0.007     -2.96
   H2O             5.551e+01   9.959e-01     1.744    -0.002     0.000     17.80
H(0)          4.727e-15
   H2              2.364e-15   2.364e-15   -14.626   -14.626     0.000     15.20
O(0)          0.000e+00
   O2              0.000e+00   0.000e+00   -63.265   -63.265     0.000     29.94
Sg            2.460e-01
   H2Sg            2.378e-01   2.378e-01    -0.624    -0.624     0.000     32.73
   (H2Sg)2         4.013e-03   4.014e-03    -2.396    -2.396     0.000     44.29
   HSg-            1.822e-04   1.794e-04    -3.740    -3.746    -0.007     20.73

------------------------------Saturation indices-------------------------------

  Phase               SI** log IAP   log K(298 K, 345 atm)

  H2(g)           -11.43    -14.63   -3.19  H2
  H2O(g)           -1.40     -0.00    1.39  H2O
  H2Sg(g)           0.57     -7.49   -8.06  H2Sg
  O2(g)           -60.19    -63.26   -3.08  O2

**For a gas, SI = log10(fugacity). Fugacity = pressure * phi / 1 atm.
  For ideal gases, phi = 1.

Reaction step 10.

Using solution 2.	
Using temperature 1.	
Using pressure 1.	
Using reaction 1.	

Reaction 1.	

	  2.490e-01 moles of the following reaction have been added:

	                 Relative
	Reactant            moles

	H2Sg                 1.00000

	                 Relative
	Element             moles
	H                    2.00000
	Sg                   1.00000

-----------------------------Solution composition------------------------------

	Elements           Molality       Moles

	Sg                2.490e-01   2.490e-01

----------------------------Description of solution----------------------------

                                       pH  =   3.614      Charge balance
                                       pe  =   1.957      Adjusted to redox equilibrium
      Specific Conductance (µS/cm,  50°C)  = 135
                          Density (g/cm³)  =   1.00211
                               Volume (L)  =   1.00636
                        Viscosity (mPa s)  =   0.55391
                        Activity of water  =   0.996
                 Ionic strength (mol/kgw)  =   2.474e-04
                       Mass of water (kg)  =   1.000e+00
                 Total alkalinity (eq/kg)  =   2.077e-12
                         Temperature (°C)  =  50.00
                           Pressure (atm)  = 345.17
                  Electrical balance (eq)  =  -2.077e-12
 Percent error, 100*(Cat-|An|)/(Cat+|An|)  =  -0.00
                               Iterations  =  66
                                  Total H  = 1.115104e+02
                                  Total O  = 5.550622e+01

----------------------------Distribution of species----------------------------

                                               Log       Log       Log    mole V
   Species          Molality    Activity  Molality  Activity     Gamma   cm³/mol

   H+              2.474e-04   2.430e-04    -3.607    -3.614    -0.008      0.00
   OH-             3.046e-10   2.990e-10    -9.516    -9.524    -0.008     -4.15
   H2O             5.551e+01   9.959e-01     1.744    -0.002     0.000     17.97
H(0)          6.537e-15
   H2              3.268e-15   3.269e-15   -14.486   -14.486     0.000     16.34
O(0)          0.000e+00
   O2              0.000e+00   0.000e+00   -55.988   -55.988     0.000     31.22
Sg            2.490e-01
   H2Sg            2.343e-01   2.343e-01    -0.630    -0.630     0.000     36.82
   (H2Sg)2         7.213e-03   7.213e-03    -2.142    -2.142     0.000     43.16
   HSg-            2.474e-04   2.428e-04    -3.607    -3.615    -0.008     21.15

------------------------------Saturation indices-------------------------------

  Phase               SI** log IAP   log K(323 K, 345 atm)

  H2(g)           -11.27    -14.49   -3.22  H2
  H2O(g)           -0.82     -0.00    0.81  H2O
  H2Sg(g)           0.80     -7.23   -8.03  H2Sg
  O2(g)           -52.78    -55.99   -3.21  O2

**For a gas, SI = log10(fugacity). Fugacity = pressure * phi / 1 atm.
  For ideal gases, phi = 1.

Reaction step 11.

Using solution 2.	
Using temperature 1.	
Using pressure 1.	
Using reaction 1.	

Reaction 1.	

	  2.500e-01 moles of the following reaction have been added:

	                 Relative
	Reactant            moles

	H2Sg                 1.00000

	                 Relative
	Element             moles
	H                    2.00000
	Sg                   1.00000

-----------------------------Solution composition------------------------------

	Elements           Molality       Moles

	Sg                2.500e-01   2.500e-01

----------------------------Description of solution----------------------------

                                       pH  =   3.532      Charge balance
                                       pe  =   2.411      Adjusted to redox equilibrium
      Specific Conductance (µS/cm, 100°C)  = 223
                          Density (g/cm³)  =   0.97303
                               Volume (L)  =   1.03647
                        Viscosity (mPa s)  =   0.29095
                        Activity of water  =   0.996
                 Ionic strength (mol/kgw)  =   3.006e-04
                       Mass of water (kg)  =   1.000e+00
                 Total alkalinity (eq/kg)  =   2.810e-12
                         Temperature (°C)  = 100.00
                           Pressure (atm)  = 345.17
                  Electrical balance (eq)  =  -2.810e-12
 Percent error, 100*(Cat-|An|)/(Cat+|An|)  =  -0.00
                               Iterations  =  57
                                  Total H  = 1.115124e+02
                                  Total O  = 5.550622e+01

----------------------------Distribution of species----------------------------

                                               Log       Log       Log    mole V
   Species          Molality    Activity  Molality  Activity     Gamma   cm³/mol

   H+              3.006e-04   2.940e-04    -3.522    -3.532    -0.010      0.00
   OH-             2.675e-09   2.614e-09    -8.573    -8.583    -0.010     -7.29
   H2O             5.551e+01   9.960e-01     1.744    -0.002     0.000     18.50
H(0)          8.325e-16
   H2              4.162e-16   4.163e-16   -15.381   -15.381     0.000     17.86
O(0)          0.000e+00
   O2              0.000e+00   0.000e+00   -42.780   -42.780     0.000     32.87
Sg            2.500e-01
   H2Sg            2.254e-01   2.254e-01    -0.647    -0.647     0.000     41.40
   (H2Sg)2         1.216e-02   1.216e-02    -1.915    -1.915     0.000     39.35
   HSg-            3.006e-04   2.938e-04    -3.522    -3.532    -0.010     20.05

------------------------------Saturation indices-------------------------------

  Phase               SI** log IAP   log K(373 K, 345 atm)

  H2(g)           -12.21    -15.38   -3.17  H2
  H2O(g)            0.08     -0.00   -0.09  H2O
  H2Sg(g)           1.04     -7.06   -8.10  H2Sg
  O2(g)           -39.50    -42.78   -3.28  O2

**For a gas, SI = log10(fugacity). Fugacity = pressure * phi / 1 atm.
  For ideal gases, phi = 1.

Reaction step 12.

Using solution 2.	
Using temperature 1.	
Using pressure 1.	
Using reaction 1.	

Reaction 1.	

	  2.520e-01 moles of the following reaction have been added:

	                 Relative
	Reactant            moles

	H2Sg                 1.00000

	                 Relative
	Element             moles
	H                    2.00000
	Sg                   1.00000

-----------------------------Solution composition------------------------------

	Elements           Molality       Moles

	Sg                2.520e-01   2.520e-01

----------------------------Description of solution----------------------------

                                       pH  =   3.600      Charge balance
                                       pe  =   1.847      Adjusted to redox equilibrium
      Specific Conductance (µS/cm, 150°C)  = 221
                          Density (g/cm³)  =   0.93426
                               Volume (L)  =   1.07956
                        Viscosity (mPa s)  =   0.19120
                        Activity of water  =   0.996
                 Ionic strength (mol/kgw)  =   2.570e-04
                       Mass of water (kg)  =   1.000e+00
                 Total alkalinity (eq/kg)  =   2.474e-12
                         Temperature (°C)  = 150.00
                           Pressure (atm)  = 345.17
                  Electrical balance (eq)  =  -2.474e-12
 Percent error, 100*(Cat-|An|)/(Cat+|An|)  =  -0.00
                               Iterations  =  54
                                  Total H  = 1.115164e+02
                                  Total O  = 5.550622e+01

----------------------------Distribution of species----------------------------

                                               Log       Log       Log    mole V
   Species          Molality    Activity  Molality  Activity     Gamma   cm³/mol

   H+              2.570e-04   2.510e-04    -3.590    -3.600    -0.010      0.00
   OH-             1.316e-08   1.284e-08    -7.881    -7.891    -0.011    -12.73
   H2O             5.551e+01   9.959e-01     1.744    -0.002     0.000     19.26
H(0)          6.180e-15
   H2              3.090e-15   3.090e-15   -14.510   -14.510     0.000     19.43
O(0)          2.104e-37
   O2              1.052e-37   1.052e-37   -36.978   -36.978     0.000     34.49
Sg            2.520e-01
   H2Sg            2.251e-01   2.251e-01    -0.648    -0.648     0.000     44.86
   (H2Sg)2         1.331e-02   1.331e-02    -1.876    -1.876     0.000     32.13
   HSg-            2.570e-04   2.508e-04    -3.590    -3.601    -0.011     16.52

------------------------------Saturation indices-------------------------------

  Phase               SI** log IAP   log K(423 K, 345 atm)

  H2(g)           -11.47    -14.51   -3.04  H2
  H2O(g)            0.74     -0.00   -0.74  H2O
  H2Sg(g)           1.10     -7.20   -8.30  H2Sg
  O2(g)           -33.79    -36.98   -3.19  O2

**For a gas, SI = log10(fugacity). Fugacity = pressure * phi / 1 atm.
  For ideal gases, phi = 1.

Reaction step 13.

Using solution 2.	
Using temperature 1.	
Using pressure 1.	
Using reaction 1.	

Reaction 1.	

	  2.530e-01 moles of the following reaction have been added:

	                 Relative
	Reactant            moles

	H2Sg                 1.00000

	                 Relative
	Element             moles
	H                    2.00000
	Sg                   1.00000

-----------------------------Solution composition------------------------------

	Elements           Molality       Moles

	Sg                2.530e-01   2.530e-01

----------------------------Description of solution----------------------------

                                       pH  =   3.767      Charge balance
                                       pe  =   2.092      Adjusted to redox equilibrium
      Specific Conductance (µS/cm, 200°C)  = 157
                          Density (g/cm³)  =   0.88600
                               Volume (L)  =   1.13839
                        Viscosity (mPa s)  =   0.14242 (solute contributions limited to 200 °C)
                        Activity of water  =   0.996
                 Ionic strength (mol/kgw)  =   1.748e-04
                       Mass of water (kg)  =   1.000e+00
                 Total alkalinity (eq/kg)  =   1.320e-12
                         Temperature (°C)  = 200.20
                           Pressure (atm)  = 345.07
                  Electrical balance (eq)  =  -1.320e-12
 Percent error, 100*(Cat-|An|)/(Cat+|An|)  =  -0.00
                               Iterations  =  69
                                  Total H  = 1.115184e+02
                                  Total O  = 5.550622e+01

----------------------------Distribution of species----------------------------

                                               Log       Log       Log    mole V
   Species          Molality    Activity  Molality  Activity     Gamma   cm³/mol

   H+              1.748e-04   1.709e-04    -3.757    -3.767    -0.010      0.00
   OH-             4.215e-08   4.119e-08    -7.375    -7.385    -0.010    -23.29
   H2O             5.551e+01   9.959e-01     1.744    -0.002     0.000     20.30
H(0)          7.422e-16
   H2              3.711e-16   3.711e-16   -15.430   -15.430     0.000     21.92
O(0)          5.348e-31
   O2              2.674e-31   2.674e-31   -30.573   -30.573     0.000     36.99
Sg            2.530e-01
   H2Sg            2.298e-01   2.298e-01    -0.639    -0.639     0.000     49.21
   (H2Sg)2         1.151e-02   1.151e-02    -1.939    -1.939     0.000     17.81
   HSg-            1.748e-04   1.708e-04    -3.757    -3.768    -0.010      8.85

------------------------------Saturation indices-------------------------------

  Phase               SI** log IAP   log K(473 K, 345 atm)

  H2(g)           -12.59    -15.43   -2.84  H2
  H2O(g)            1.23     -0.00   -1.23  H2O
  H2Sg(g)           1.07     -7.53   -8.61  H2Sg
  O2(g)           -27.56    -30.57   -3.01  O2

**For a gas, SI = log10(fugacity). Fugacity = pressure * phi / 1 atm.
  For ideal gases, phi = 1.

Reaction step 14.

Using solution 2.	
Using temperature 1.	
Using pressure 1.	
Using reaction 1.	

Reaction 1.	

	  2.670e-01 moles of the following reaction have been added:

	                 Relative
	Reactant            moles

	H2Sg                 1.00000

	                 Relative
	Element             moles
	H                    2.00000
	Sg                   1.00000

-----------------------------Solution composition------------------------------

	Elements           Molality       Moles

	Sg                2.670e-01   2.670e-01

----------------------------Description of solution----------------------------

                                       pH  =   3.980      Charge balance
                                       pe  =   1.319      Adjusted to redox equilibrium
      Specific Conductance (µS/cm, 250°C)  = 94
                          Density (g/cm³)  =   0.82811
                               Volume (L)  =   1.21856
                        Viscosity (mPa s)  =   0.11440 (solute contributions limited to 200 °C)
                        Activity of water  =   0.996
                 Ionic strength (mol/kgw)  =   1.068e-04
                       Mass of water (kg)  =   1.000e+00
                 Total alkalinity (eq/kg)  =   1.050e-12
                         Temperature (°C)  = 250.00
                           Pressure (atm)  = 345.17
                  Electrical balance (eq)  =  -1.050e-12
 Percent error, 100*(Cat-|An|)/(Cat+|An|)  =  -0.00
                               Iterations  =  51
                                  Total H  = 1.115464e+02
                                  Total O  = 5.550622e+01

----------------------------Distribution of species----------------------------

                                               Log       Log       Log    mole V
   Species          Molality    Activity  Molality  Activity     Gamma   cm³/mol

   H+              1.068e-04   1.046e-04    -3.971    -3.980    -0.009      0.00
   OH-             9.156e-08   8.961e-08    -7.038    -7.048    -0.009    -45.96
   H2O             5.551e+01   9.956e-01     1.744    -0.002     0.000     21.70
H(0)          8.023e-15
   H2              4.011e-15   4.012e-15   -14.397   -14.397     0.000     26.89
O(0)          6.371e-31
   O2              3.186e-31   3.186e-31   -30.497   -30.497     0.000     41.92
Sg            2.670e-01
   H2Sg            2.465e-01   2.466e-01    -0.608    -0.608     0.000     56.98
   (H2Sg)2         1.017e-02   1.017e-02    -1.993    -1.993     0.000    -13.09
   HSg-            1.067e-04   1.045e-04    -3.972    -3.981    -0.009     -8.18

------------------------------Saturation indices-------------------------------

  Phase               SI** log IAP   log K(523 K, 345 atm)

  H2(g)           -11.79    -14.40   -2.61  H2
  H2O(g)            1.60     -0.00   -1.60  H2O
  H2Sg(g)           1.01     -7.96   -8.97  H2Sg
  O2(g)           -27.71    -30.50   -2.78  O2

**For a gas, SI = log10(fugacity). Fugacity = pressure * phi / 1 atm.
  For ideal gases, phi = 1.

Reaction step 15.

Using solution 2.	
Using temperature 1.	
Using pressure 1.	
Using reaction 1.	

Reaction 1.	

	  2.590e-01 moles of the following reaction have been added:

	                 Relative
	Reactant            moles

	H2Sg                 1.00000

	                 Relative
	Element             moles
	H                    2.00000
	Sg                   1.00000

-----------------------------Solution composition------------------------------

	Elements           Molality       Moles

	Sg                2.590e-01   2.590e-01

----------------------------Description of solution----------------------------

                                       pH  =   4.216      Charge balance
                                       pe  =   1.405      Adjusted to redox equilibrium
      Specific Conductance (µS/cm, 300°C)  = 50
                          Density (g/cm³)  =   0.75403
                               Volume (L)  =   1.33792
                        Viscosity (mPa s)  =   0.09459 (solute contributions limited to 200 °C)
                        Activity of water  =   0.996
                 Ionic strength (mol/kgw)  =   6.197e-05
                       Mass of water (kg)  =   1.000e+00
                 Total alkalinity (eq/kg)  =   3.583e-13
                         Temperature (°C)  = 300.00
                           Pressure (atm)  = 345.07
                  Electrical balance (eq)  =  -3.583e-13
 Percent error, 100*(Cat-|An|)/(Cat+|An|)  =  -0.00
                               Iterations  =  51
                                  Total H  = 1.115304e+02
                                  Total O  = 5.550622e+01

----------------------------Distribution of species----------------------------

                                               Log       Log       Log    mole V
   Species          Molality    Activity  Molality  Activity     Gamma   cm³/mol

   H+              6.197e-05   6.076e-05    -4.208    -4.216    -0.009      0.00
   OH-             1.595e-07   1.563e-07    -6.797    -6.806    -0.009   -106.33
   H2O             5.551e+01   9.958e-01     1.744    -0.002     0.000     23.79
H(0)          1.459e-15
   H2              7.294e-16   7.294e-16   -15.137   -15.137     0.000     39.81
O(0)          2.754e-29
   O2              1.377e-29   1.377e-29   -28.861   -28.861     0.000     54.67
Sg            2.590e-01
   H2Sg            2.389e-01   2.389e-01    -0.622    -0.622     0.000     76.35
   (H2Sg)2         1.003e-02   1.003e-02    -1.999    -1.999     0.000    -95.59
   HSg-            6.181e-05   6.058e-05    -4.209    -4.218    -0.009    -54.02

------------------------------Saturation indices-------------------------------

  Phase               SI** log IAP   log K(573 K, 345 atm)

  H2(g)           -12.77    -15.14   -2.36  H2
  H2O(g)            1.88     -0.00   -1.88  H2O
  H2Sg(g)           0.89     -8.43   -9.33  H2Sg
  O2(g)           -26.32    -28.86   -2.54  O2

**For a gas, SI = log10(fugacity). Fugacity = pressure * phi / 1 atm.
  For ideal gases, phi = 1.

------------------
End of simulation.
------------------

-------------------------------------
Reading input data for simulation 25.
-------------------------------------

