WARNING: Database file from DATABASE keyword is used; command line argument ignored.
   Input file: halite
  Output file: halite.out
Database file: ../database/pitzer.dat

------------------
Reading data base.
------------------

	SOLUTION_MASTER_SPECIES
	SOLUTION_SPECIES
	PHASES
	PITZER
	GAS_BINARY_PARAMETERS
	EXCHANGE_MASTER_SPECIES
	EXCHANGE_SPECIES
	SURFACE_MASTER_SPECIES
	SURFACE_SPECIES
	MEAN_GAMMAS
	END
------------------------------------
Reading input data for simulation 1.
------------------------------------

	DATABASE ../database/pitzer.dat
	SELECTED_OUTPUT 101
	    file                 halite_101.sel
	USER_PUNCH 101
	    headings Mu SC
	    start
	10 PUNCH STR_F$(MU, 20, 12)
	20 PUNCH STR_F$(SC, 20, 10)
	    end
	SOLUTION 1
	 pH 7 charge
	 temp 30
	EQUILIBRIUM_PHASES
	 Halite
	REACTION_PRESSURE
	 1 2000 in 10
	USER_GRAPH
	 -headings p model
	 -axis_titles "Pressure / bar" " Halite solubility / mol/kgw"
	 -axis_scale x_axis 0 2e3
	 -plot_csv_file halite.dat
	 10 graph_x pressure * 1.013
	 20 graph_y tot("Na")
	END
-------------------------------------------
Beginning of initial solution calculations.
-------------------------------------------

Initial solution 1.	

-----------------------------Solution composition------------------------------

	Elements           Molality       Moles

	Pure water     

----------------------------Description of solution----------------------------

                                       pH  =   6.917      Charge balance
                                       pe  =   4.000    
      Specific Conductance (µS/cm,  30°C)  = 0
                          Density (g/cm³)  =   0.99564
                               Volume (L)  =   1.00437
                        Viscosity (mPa s)  =   0.79722
                        Activity of water  =   1.000
                 Ionic strength (mol/kgw)  =   1.212e-07
                       Mass of water (kg)  =   1.000e+00
                 Total alkalinity (eq/kg)  =   2.382e-22
                         Temperature (°C)  =  30.00
                  Electrical balance (eq)  =  -2.382e-22
 Percent error, 100*(Cat-|An|)/(Cat+|An|)  =  -0.00
                               Iterations  =   5
                         Gamma iterations  =   2
                      Osmotic coefficient  =   0.99986
                         Density of water  =   0.99564
                                  Total H  = 1.110124e+02
                                  Total O  = 5.550622e+01

----------------------------Distribution of species----------------------------

                                                    MacInnes  MacInnes
                                MacInnes       Log       Log       Log    mole V
   Species          Molality    Activity  Molality  Activity     Gamma   cm³/mol

   OH-             1.212e-07   1.212e-07    -6.916    -6.917    -0.000     -3.98
   H+              1.212e-07   1.212e-07    -6.916    -6.917    -0.000      0.00
   H2O             5.551e+01   1.000e+00     1.744    -0.000     0.000     18.09

------------------------------Saturation indices-------------------------------

  Phase               SI** log IAP   log K(303 K,   1 atm)

  H2O(g)           -1.38     -0.00    1.38  H2O

**For a gas, SI = log10(fugacity). Fugacity = pressure * phi / 1 atm.
  For ideal gases, phi = 1.

-----------------------------------------
Beginning of batch-reaction calculations.
-----------------------------------------

Reaction step 1.

Using solution 1.	
Using pure phase assemblage 1.	
Using pressure 1.	

-------------------------------Phase assemblage--------------------------------

                                                      Moles in assemblage
Phase               SI  log IAP  log K(T, P)   Initial       Final       Delta

Halite            0.00     1.59      1.59    1.000e+01   3.848e+00  -6.152e+00

-----------------------------Solution composition------------------------------

	Elements           Molality       Moles

	Cl                6.152e+00   6.152e+00
	Na                6.152e+00   6.152e+00

----------------------------Description of solution----------------------------

                                       pH  =   6.300      Charge balance
                                       pe  =   4.000      Adjusted to redox equilibrium
      Specific Conductance (µS/cm,  30°C)  = 274719
                          Density (g/cm³)  =   1.19549
                               Volume (L)  =   1.13722
                        Viscosity (mPa s)  =   1.58917
                        Activity of water  =   0.752
                 Ionic strength (mol/kgw)  =   6.152e+00
                       Mass of water (kg)  =   1.000e+00
                 Total alkalinity (eq/kg)  =  -1.863e-16
                         Temperature (°C)  =  30.00
                  Electrical balance (eq)  =  -3.198e-13
 Percent error, 100*(Cat-|An|)/(Cat+|An|)  =  -0.00
                               Iterations  =  16
                         Gamma iterations  =   5
                      Osmotic coefficient  =   1.28654
                         Density of water  =   0.99564
                                  Total H  = 1.110124e+02
                                  Total O  = 5.550622e+01

----------------------------Distribution of species----------------------------

                                                    MacInnes  MacInnes
                                MacInnes       Log       Log       Log    mole V
   Species          Molality    Activity  Molality  Activity     Gamma   cm³/mol

   H+              6.700e-08   5.008e-07    -7.174    -6.300     0.874      0.00
   OH-             6.700e-08   2.204e-08    -7.174    -7.657    -0.483      5.18
   H2O             5.551e+01   7.519e-01     1.744    -0.124     0.000     18.09
Cl            6.152e+00
   Cl-             6.152e+00   3.830e+00     0.789     0.583    -0.206     20.22
Na            6.152e+00
   Na+             6.152e+00   1.020e+01     0.789     1.009     0.220      1.37

------------------------------Saturation indices-------------------------------

  Phase               SI** log IAP   log K(303 K,   1 atm)

  H2O(g)           -1.50     -0.12    1.38  H2O
  Halite            0.00      1.59    1.59  NaCl

**For a gas, SI = log10(fugacity). Fugacity = pressure * phi / 1 atm.
  For ideal gases, phi = 1.

Reaction step 2.

Using solution 1.	
Using pure phase assemblage 1.	
Using pressure 1.	

-------------------------------Phase assemblage--------------------------------

                                                      Moles in assemblage
Phase               SI  log IAP  log K(T, P)   Initial       Final       Delta

Halite           -0.00     1.61      1.61    1.000e+01   3.788e+00  -6.212e+00

-----------------------------Solution composition------------------------------

	Elements           Molality       Moles

	Cl                6.212e+00   6.212e+00
	Na                6.212e+00   6.212e+00

----------------------------Description of solution----------------------------

                                       pH  =   6.271      Charge balance
                                       pe  =   4.000      Adjusted to redox equilibrium
      Specific Conductance (µS/cm,  30°C)  = 277108
                          Density (g/cm³)  =   1.20333
                               Volume (L)  =   1.13275
                        Viscosity (mPa s)  =   1.60126
                        Activity of water  =   0.748
                 Ionic strength (mol/kgw)  =   6.212e+00
                       Mass of water (kg)  =   1.000e+00
                 Total alkalinity (eq/kg)  =   2.377e-16
                         Temperature (°C)  =  30.00
                           Pressure (atm)  = 223.11
                  Electrical balance (eq)  =  -1.235e-12
 Percent error, 100*(Cat-|An|)/(Cat+|An|)  =  -0.00
                               Iterations  =  16
                         Gamma iterations  =   5
                      Osmotic coefficient  =   1.29421
                         Density of water  =   1.00538
                                  Total H  = 1.110124e+02
                                  Total O  = 5.550622e+01

----------------------------Distribution of species----------------------------

                                                    MacInnes  MacInnes
                                MacInnes       Log       Log       Log    mole V
   Species          Molality    Activity  Molality  Activity     Gamma   cm³/mol

   OH-             6.958e-08   2.286e-08    -7.158    -7.641    -0.483      5.63
   H+              6.958e-08   5.363e-07    -7.158    -6.271     0.887      0.00
   H2O             5.551e+01   7.485e-01     1.744    -0.126     0.000     17.92
Cl            6.212e+00
   Cl-             6.212e+00   3.892e+00     0.793     0.590    -0.203     20.21
Na            6.212e+00
   Na+             6.212e+00   1.048e+01     0.793     1.020     0.227      2.02

------------------------------Saturation indices-------------------------------

  Phase               SI** log IAP   log K(303 K, 223 atm)

  H2O(g)           -1.43     -0.13    1.31  H2O
  Halite           -0.00      1.61    1.61  NaCl

**For a gas, SI = log10(fugacity). Fugacity = pressure * phi / 1 atm.
  For ideal gases, phi = 1.

Reaction step 3.

Using solution 1.	
Using pure phase assemblage 1.	
Using pressure 1.	

-------------------------------Phase assemblage--------------------------------

                                                      Moles in assemblage
Phase               SI  log IAP  log K(T, P)   Initial       Final       Delta

Halite           -0.00     1.63      1.63    1.000e+01   3.742e+00  -6.258e+00

-----------------------------Solution composition------------------------------

	Elements           Molality       Moles

	Cl                6.258e+00   6.258e+00
	Na                6.258e+00   6.258e+00

----------------------------Description of solution----------------------------

                                       pH  =   6.244      Charge balance
                                       pe  =   4.000      Adjusted to redox equilibrium
      Specific Conductance (µS/cm,  30°C)  = 278978
                          Density (g/cm³)  =   1.21068
                               Volume (L)  =   1.12807
                        Viscosity (mPa s)  =   1.61295
                        Activity of water  =   0.746
                 Ionic strength (mol/kgw)  =   6.258e+00
                       Mass of water (kg)  =   1.000e+00
                 Total alkalinity (eq/kg)  =   5.259e-16
                         Temperature (°C)  =  30.00
                           Pressure (atm)  = 445.22
                  Electrical balance (eq)  =  -2.633e-12
 Percent error, 100*(Cat-|An|)/(Cat+|An|)  =  -0.00
                               Iterations  =  16
                         Gamma iterations  =   5
                      Osmotic coefficient  =   1.30052
                         Density of water  =   1.01478
                                  Total H  = 1.110124e+02
                                  Total O  = 5.550622e+01

----------------------------Distribution of species----------------------------

                                                    MacInnes  MacInnes
                                MacInnes       Log       Log       Log    mole V
   Species          Molality    Activity  Molality  Activity     Gamma   cm³/mol

   OH-             7.215e-08   2.370e-08    -7.142    -7.625    -0.483      6.03
   H+              7.215e-08   5.695e-07    -7.142    -6.244     0.897      0.00
   H2O             5.551e+01   7.458e-01     1.744    -0.127     0.000     17.75
Cl            6.258e+00
   Cl-             6.258e+00   3.941e+00     0.796     0.596    -0.201     20.21
Na            6.258e+00
   Na+             6.258e+00   1.070e+01     0.796     1.030     0.233      2.58

------------------------------Saturation indices-------------------------------

  Phase               SI** log IAP   log K(303 K, 445 atm)

  H2O(g)           -1.37     -0.13    1.24  H2O
  Halite           -0.00      1.63    1.63  NaCl

**For a gas, SI = log10(fugacity). Fugacity = pressure * phi / 1 atm.
  For ideal gases, phi = 1.

Reaction step 4.

Using solution 1.	
Using pure phase assemblage 1.	
Using pressure 1.	

-------------------------------Phase assemblage--------------------------------

                                                      Moles in assemblage
Phase               SI  log IAP  log K(T, P)   Initial       Final       Delta

Halite            0.00     1.64      1.64    1.000e+01   3.709e+00  -6.291e+00

-----------------------------Solution composition------------------------------

	Elements           Molality       Moles

	Cl                6.291e+00   6.291e+00
	Na                6.291e+00   6.291e+00

----------------------------Description of solution----------------------------

                                       pH  =   6.221      Charge balance
                                       pe  =   4.000      Adjusted to redox equilibrium
      Specific Conductance (µS/cm,  30°C)  = 280306
                          Density (g/cm³)  =   1.21760
                               Volume (L)  =   1.12326
                        Viscosity (mPa s)  =   1.62478
                        Activity of water  =   0.744
                 Ionic strength (mol/kgw)  =   6.291e+00
                       Mass of water (kg)  =   1.000e+00
                 Total alkalinity (eq/kg)  =   4.162e-16
                         Temperature (°C)  =  30.00
                           Pressure (atm)  = 667.33
                  Electrical balance (eq)  =   3.489e-12
 Percent error, 100*(Cat-|An|)/(Cat+|An|)  =   0.00
                               Iterations  =  17
                         Gamma iterations  =   5
                      Osmotic coefficient  =   1.30571
                         Density of water  =   1.02378
                                  Total H  = 1.110124e+02
                                  Total O  = 5.550622e+01

----------------------------Distribution of species----------------------------

                                                    MacInnes  MacInnes
                                MacInnes       Log       Log       Log    mole V
   Species          Molality    Activity  Molality  Activity     Gamma   cm³/mol

   OH-             7.475e-08   2.456e-08    -7.126    -7.610    -0.483      6.38
   H+              7.475e-08   6.005e-07    -7.126    -6.221     0.905      0.00
   H2O             5.551e+01   7.438e-01     1.744    -0.129     0.000     17.60
Cl            6.291e+00
   Cl-             6.291e+00   3.978e+00     0.799     0.600    -0.199     20.22
Na            6.291e+00
   Na+             6.291e+00   1.087e+01     0.799     1.036     0.238      3.06

------------------------------Saturation indices-------------------------------

  Phase               SI** log IAP   log K(303 K, 667 atm)

  H2O(g)           -1.30     -0.13    1.17  H2O
  Halite            0.00      1.64    1.64  NaCl

**For a gas, SI = log10(fugacity). Fugacity = pressure * phi / 1 atm.
  For ideal gases, phi = 1.

Reaction step 5.

Using solution 1.	
Using pure phase assemblage 1.	
Using pressure 1.	

-------------------------------Phase assemblage--------------------------------

                                                      Moles in assemblage
Phase               SI  log IAP  log K(T, P)   Initial       Final       Delta

Halite            0.00     1.64      1.64    1.000e+01   3.685e+00  -6.315e+00

-----------------------------Solution composition------------------------------

	Elements           Molality       Moles

	Cl                6.315e+00   6.315e+00
	Na                6.315e+00   6.315e+00

----------------------------Description of solution----------------------------

                                       pH  =   6.201      Charge balance
                                       pe  =   4.000      Adjusted to redox equilibrium
      Specific Conductance (µS/cm,  30°C)  = 281112
                          Density (g/cm³)  =   1.22422
                               Volume (L)  =   1.11834
                        Viscosity (mPa s)  =   1.63726
                        Activity of water  =   0.742
                 Ionic strength (mol/kgw)  =   6.315e+00
                       Mass of water (kg)  =   1.000e+00
                 Total alkalinity (eq/kg)  =   3.073e-16
                         Temperature (°C)  =  30.00
                           Pressure (atm)  = 889.44
                  Electrical balance (eq)  =   4.352e-12
 Percent error, 100*(Cat-|An|)/(Cat+|An|)  =   0.00
                               Iterations  =  17
                         Gamma iterations  =   5
                      Osmotic coefficient  =   1.31003
                         Density of water  =   1.03241
                                  Total H  = 1.110124e+02
                                  Total O  = 5.550622e+01

----------------------------Distribution of species----------------------------

                                                    MacInnes  MacInnes
                                MacInnes       Log       Log       Log    mole V
   Species          Molality    Activity  Molality  Activity     Gamma   cm³/mol

   OH-             7.735e-08   2.542e-08    -7.112    -7.595    -0.483      6.68
   H+              7.735e-08   6.297e-07    -7.112    -6.201     0.911      0.00
   H2O             5.551e+01   7.422e-01     1.744    -0.129     0.000     17.45
Cl            6.315e+00
   Cl-             6.315e+00   4.007e+00     0.800     0.603    -0.198     20.23
Na            6.315e+00
   Na+             6.315e+00   1.100e+01     0.800     1.042     0.241      3.48

------------------------------Saturation indices-------------------------------

  Phase               SI** log IAP   log K(303 K, 889 atm)

  H2O(g)           -1.24     -0.13    1.11  H2O
  Halite            0.00      1.64    1.64  NaCl

**For a gas, SI = log10(fugacity). Fugacity = pressure * phi / 1 atm.
  For ideal gases, phi = 1.

Reaction step 6.

Using solution 1.	
Using pure phase assemblage 1.	
Using pressure 1.	

-------------------------------Phase assemblage--------------------------------

                                                      Moles in assemblage
Phase               SI  log IAP  log K(T, P)   Initial       Final       Delta

Halite            0.00     1.65      1.65    1.000e+01   3.667e+00  -6.333e+00

-----------------------------Solution composition------------------------------

	Elements           Molality       Moles

	Cl                6.333e+00   6.333e+00
	Na                6.333e+00   6.333e+00

----------------------------Description of solution----------------------------

                                       pH  =   6.182      Charge balance
                                       pe  =   4.000      Adjusted to redox equilibrium
      Specific Conductance (µS/cm,  30°C)  = 281423
                          Density (g/cm³)  =   1.23075
                               Volume (L)  =   1.11326
                        Viscosity (mPa s)  =   1.65100
                        Activity of water  =   0.741
                 Ionic strength (mol/kgw)  =   6.333e+00
                       Mass of water (kg)  =   1.000e+00
                 Total alkalinity (eq/kg)  =   1.467e-17
                         Temperature (°C)  =  30.00
                           Pressure (atm)  = 1111.56
                  Electrical balance (eq)  =   5.000e-12
 Percent error, 100*(Cat-|An|)/(Cat+|An|)  =   0.00
                               Iterations  =  17
                         Gamma iterations  =   5
                      Osmotic coefficient  =   1.31373
                         Density of water  =   1.04077
                                  Total H  = 1.110124e+02
                                  Total O  = 5.550622e+01

----------------------------Distribution of species----------------------------

                                                    MacInnes  MacInnes
                                MacInnes       Log       Log       Log    mole V
   Species          Molality    Activity  Molality  Activity     Gamma   cm³/mol

   OH-             7.998e-08   2.630e-08    -7.097    -7.580    -0.483      6.93
   H+              7.998e-08   6.576e-07    -7.097    -6.182     0.915      0.00
   H2O             5.551e+01   7.410e-01     1.744    -0.130     0.000     17.31
Cl            6.333e+00
   Cl-             6.333e+00   4.029e+00     0.802     0.605    -0.196     20.23
Na            6.333e+00
   Na+             6.333e+00   1.110e+01     0.802     1.045     0.244      3.84

------------------------------Saturation indices-------------------------------

  Phase               SI** log IAP   log K(303 K, 1112 atm)

  H2O(g)           -1.17     -0.13    1.04  H2O
  Halite            0.00      1.65    1.65  NaCl

**For a gas, SI = log10(fugacity). Fugacity = pressure * phi / 1 atm.
  For ideal gases, phi = 1.

Reaction step 7.

Using solution 1.	
Using pure phase assemblage 1.	
Using pressure 1.	

-------------------------------Phase assemblage--------------------------------

                                                      Moles in assemblage
Phase               SI  log IAP  log K(T, P)   Initial       Final       Delta

Halite            0.00     1.66      1.66    1.000e+01   3.652e+00  -6.348e+00

-----------------------------Solution composition------------------------------

	Elements           Molality       Moles

	Cl                6.348e+00   6.348e+00
	Na                6.348e+00   6.348e+00

----------------------------Description of solution----------------------------

                                       pH  =   6.164      Charge balance
                                       pe  =   4.000      Adjusted to redox equilibrium
      Specific Conductance (µS/cm,  30°C)  = 281250
                          Density (g/cm³)  =   1.23745
                               Volume (L)  =   1.10792
                        Viscosity (mPa s)  =   1.66684
                        Activity of water  =   0.740
                 Ionic strength (mol/kgw)  =   6.348e+00
                       Mass of water (kg)  =   1.000e+00
                 Total alkalinity (eq/kg)  =   8.223e-18
                         Temperature (°C)  =  30.00
                           Pressure (atm)  = 1333.67
                  Electrical balance (eq)  =   5.480e-12
 Percent error, 100*(Cat-|An|)/(Cat+|An|)  =   0.00
                               Iterations  =  19
                         Gamma iterations  =   5
                      Osmotic coefficient  =   1.31703
                         Density of water  =   1.04904
                                  Total H  = 1.110124e+02
                                  Total O  = 5.550622e+01

----------------------------Distribution of species----------------------------

                                                    MacInnes  MacInnes
                                MacInnes       Log       Log       Log    mole V
   Species          Molality    Activity  Molality  Activity     Gamma   cm³/mol

   OH-             8.263e-08   2.717e-08    -7.083    -7.566    -0.483      7.13
   H+              8.263e-08   6.847e-07    -7.083    -6.164     0.918      0.00
   H2O             5.551e+01   7.399e-01     1.744    -0.131     0.000     17.17
Cl            6.348e+00
   Cl-             6.348e+00   4.046e+00     0.803     0.607    -0.196     20.21
Na            6.348e+00
   Na+             6.348e+00   1.118e+01     0.803     1.048     0.246      4.15

------------------------------Saturation indices-------------------------------

  Phase               SI** log IAP   log K(303 K, 1334 atm)

  H2O(g)           -1.11     -0.13    0.98  H2O
  Halite            0.00      1.66    1.66  NaCl

**For a gas, SI = log10(fugacity). Fugacity = pressure * phi / 1 atm.
  For ideal gases, phi = 1.

Reaction step 8.

Using solution 1.	
Using pure phase assemblage 1.	
Using pressure 1.	

-------------------------------Phase assemblage--------------------------------

                                                      Moles in assemblage
Phase               SI  log IAP  log K(T, P)   Initial       Final       Delta

Halite            0.00     1.66      1.66    1.000e+01   3.638e+00  -6.362e+00

-----------------------------Solution composition------------------------------

	Elements           Molality       Moles

	Cl                6.362e+00   6.362e+00
	Na                6.362e+00   6.362e+00

----------------------------Description of solution----------------------------

                                       pH  =   6.148      Charge balance
                                       pe  =   4.000      Adjusted to redox equilibrium
      Specific Conductance (µS/cm,  30°C)  = 280554
                          Density (g/cm³)  =   1.24463
                               Volume (L)  =   1.10220
                        Viscosity (mPa s)  =   1.68599
                        Activity of water  =   0.739
                 Ionic strength (mol/kgw)  =   6.362e+00
                       Mass of water (kg)  =   1.000e+00
                 Total alkalinity (eq/kg)  =  -2.775e-16
                         Temperature (°C)  =  30.00
                           Pressure (atm)  = 1555.78
                  Electrical balance (eq)  =   5.853e-12
 Percent error, 100*(Cat-|An|)/(Cat+|An|)  =   0.00
                               Iterations  =  17
                         Gamma iterations  =   5
                      Osmotic coefficient  =   1.32017
                         Density of water  =   1.05745
                                  Total H  = 1.110124e+02
                                  Total O  = 5.550622e+01

----------------------------Distribution of species----------------------------

                                                    MacInnes  MacInnes
                                MacInnes       Log       Log       Log    mole V
   Species          Molality    Activity  Molality  Activity     Gamma   cm³/mol

   H+              8.529e-08   7.117e-07    -7.069    -6.148     0.921      0.00
   OH-             8.529e-08   2.803e-08    -7.069    -7.552    -0.483      7.29
   H2O             5.551e+01   7.389e-01     1.744    -0.131     0.000     17.04
Cl            6.362e+00
   Cl-             6.362e+00   4.060e+00     0.804     0.608    -0.195     20.17
Na            6.362e+00
   Na+             6.362e+00   1.125e+01     0.804     1.051     0.247      4.43

------------------------------Saturation indices-------------------------------

  Phase               SI** log IAP   log K(303 K, 1556 atm)

  H2O(g)           -1.05     -0.13    0.91  H2O
  Halite            0.00      1.66    1.66  NaCl

**For a gas, SI = log10(fugacity). Fugacity = pressure * phi / 1 atm.
  For ideal gases, phi = 1.

Reaction step 9.

Using solution 1.	
Using pure phase assemblage 1.	
Using pressure 1.	

-------------------------------Phase assemblage--------------------------------

                                                      Moles in assemblage
Phase               SI  log IAP  log K(T, P)   Initial       Final       Delta

Halite           -0.00     1.66      1.66    1.000e+01   3.621e+00  -6.379e+00

-----------------------------Solution composition------------------------------

	Elements           Molality       Moles

	Cl                6.379e+00   6.379e+00
	Na                6.379e+00   6.379e+00

----------------------------Description of solution----------------------------

                                       pH  =   6.131      Charge balance
                                       pe  =   4.000      Adjusted to redox equilibrium
      Specific Conductance (µS/cm,  30°C)  = 279217
                          Density (g/cm³)  =   1.25264
                               Volume (L)  =   1.09594
                        Viscosity (mPa s)  =   1.71018
                        Activity of water  =   0.738
                 Ionic strength (mol/kgw)  =   6.379e+00
                       Mass of water (kg)  =   1.000e+00
                 Total alkalinity (eq/kg)  =   4.768e-16
                         Temperature (°C)  =  30.00
                           Pressure (atm)  = 1777.89
                  Electrical balance (eq)  =   9.893e-12
 Percent error, 100*(Cat-|An|)/(Cat+|An|)  =   0.00
                               Iterations  =  17
                         Gamma iterations  =   5
                      Osmotic coefficient  =   1.32339
                         Density of water  =   1.06626
                                  Total H  = 1.110124e+02
                                  Total O  = 5.550622e+01

----------------------------Distribution of species----------------------------

                                                    MacInnes  MacInnes
                                MacInnes       Log       Log       Log    mole V
   Species          Molality    Activity  Molality  Activity     Gamma   cm³/mol

   OH-             8.793e-08   2.885e-08    -7.056    -7.540    -0.484      7.41
   H+              8.793e-08   7.392e-07    -7.056    -6.131     0.925      0.00
   H2O             5.551e+01   7.377e-01     1.744    -0.132     0.000     16.90
Cl            6.379e+00
   Cl-             6.379e+00   4.072e+00     0.805     0.610    -0.195     20.11
Na            6.379e+00
   Na+             6.379e+00   1.132e+01     0.805     1.054     0.249      4.67

------------------------------Saturation indices-------------------------------

  Phase               SI** log IAP   log K(303 K, 1778 atm)

  H2O(g)           -0.98     -0.13    0.85  H2O
  Halite           -0.00      1.66    1.66  NaCl

**For a gas, SI = log10(fugacity). Fugacity = pressure * phi / 1 atm.
  For ideal gases, phi = 1.

Reaction step 10.

Using solution 1.	
Using pure phase assemblage 1.	
Using pressure 1.	

-------------------------------Phase assemblage--------------------------------

                                                      Moles in assemblage
Phase               SI  log IAP  log K(T, P)   Initial       Final       Delta

Halite           -0.00     1.67      1.67    1.000e+01   3.598e+00  -6.402e+00

-----------------------------Solution composition------------------------------

	Elements           Molality       Moles

	Cl                6.402e+00   6.402e+00
	Na                6.402e+00   6.402e+00

----------------------------Description of solution----------------------------

                                       pH  =   6.115      Charge balance
                                       pe  =   4.000      Adjusted to redox equilibrium
      Specific Conductance (µS/cm,  30°C)  = 276982
                          Density (g/cm³)  =   1.26190
                               Volume (L)  =   1.08896
                        Viscosity (mPa s)  =   1.74194
                        Activity of water  =   0.736
                 Ionic strength (mol/kgw)  =   6.402e+00
                       Mass of water (kg)  =   1.000e+00
                 Total alkalinity (eq/kg)  =   5.087e-16
                         Temperature (°C)  =  30.00
                           Pressure (atm)  = 2000.00
                  Electrical balance (eq)  =   1.030e-11
 Percent error, 100*(Cat-|An|)/(Cat+|An|)  =   0.00
                               Iterations  =  19
                         Gamma iterations  =   5
                      Osmotic coefficient  =   1.32693
                         Density of water  =   1.07580
                                  Total H  = 1.110124e+02
                                  Total O  = 5.550622e+01

----------------------------Distribution of species----------------------------

                                                    MacInnes  MacInnes
                                MacInnes       Log       Log       Log    mole V
   Species          Molality    Activity  Molality  Activity     Gamma   cm³/mol

   OH-             9.051e-08   2.961e-08    -7.043    -7.529    -0.485      7.50
   H+              9.051e-08   7.678e-07    -7.043    -6.115     0.929      0.00
   H2O             5.551e+01   7.363e-01     1.744    -0.133     0.000     16.75
Cl            6.402e+00
   Cl-             6.402e+00   4.086e+00     0.806     0.611    -0.195     20.02
Na            6.402e+00
   Na+             6.402e+00   1.141e+01     0.806     1.057     0.251      4.88

------------------------------Saturation indices-------------------------------

  Phase               SI** log IAP   log K(303 K, 2000 atm)

  H2O(g)           -0.93     -0.13    0.79  H2O
  Halite           -0.00      1.67    1.67  NaCl

**For a gas, SI = log10(fugacity). Fugacity = pressure * phi / 1 atm.
  For ideal gases, phi = 1.

------------------
End of simulation.
------------------

------------------------------------
Reading input data for simulation 2.
------------------------------------

