WARNING: Database file from DATABASE keyword is used; command line argument ignored.
   Input file: Hebach
  Output file: Hebach.out
Database file: ../database/pitzer.dat

------------------
Reading data base.
------------------

	SOLUTION_MASTER_SPECIES
	SOLUTION_SPECIES
	PHASES
	PITZER
	GAS_BINARY_PARAMETERS
	EXCHANGE_MASTER_SPECIES
	EXCHANGE_SPECIES
	SURFACE_MASTER_SPECIES
	SURFACE_SPECIES
	MEAN_GAMMAS
	END
------------------------------------
Reading input data for simulation 1.
------------------------------------

	DATABASE ../database/pitzer.dat
	SELECTED_OUTPUT 101
	    file                 Hebach_101.sel
	USER_PUNCH 101
	    headings Mu SC
	    start
	10 PUNCH STR_F$(MU, 20, 12)
	20 PUNCH STR_F$(SC, 20, 10)
	    end
	SOLUTION 1
	temp 29.6
	pH 7 charge
	GAS_PHASE 1
	fixed_volume
	 volume 0.1
	CO2(g) 1e-3
	 H2O(g) 0.01
	REACTION 1
	CO2 1
	 0 20*0.19
	INCREMENTAL_REACTIONS true
	USER_GRAPH
	 -chart_title "Data from Hebach et al., 2004, JCED 49, 950"
	 -plot_csv_file Hebach.dat
	 -axis_titles "Pressure / atm" "rho / (g/L)"
	 -connect_simulations false
	 20 graph_x pressure # tot("Na")
	 30 graph_y rho*1e3
	END
-------------------------------------------
Beginning of initial solution calculations.
-------------------------------------------

Initial solution 1.	

-----------------------------Solution composition------------------------------

	Elements           Molality       Moles

	Pure water     

----------------------------Description of solution----------------------------

                                       pH  =   6.923      Charge balance
                                       pe  =   4.000    
      Specific Conductance (µS/cm,  30°C)  = 0
                          Density (g/cm³)  =   0.99576
                               Volume (L)  =   1.00425
                        Viscosity (mPa s)  =   0.80406
                        Activity of water  =   1.000
                 Ionic strength (mol/kgw)  =   1.195e-07
                       Mass of water (kg)  =   1.000e+00
                 Total alkalinity (eq/kg)  =   0.000e+00
                         Temperature (°C)  =  29.60
                  Electrical balance (eq)  =   0.000e+00
 Percent error, 100*(Cat-|An|)/(Cat+|An|)  =   0.00
                               Iterations  =   5
                         Gamma iterations  =   2
                      Osmotic coefficient  =   0.99986
                         Density of water  =   0.99576
                                  Total H  = 1.110124e+02
                                  Total O  = 5.550622e+01

----------------------------Distribution of species----------------------------

                                                    MacInnes  MacInnes
                                MacInnes       Log       Log       Log    mole V
   Species          Molality    Activity  Molality  Activity     Gamma   cm³/mol

   OH-             1.195e-07   1.194e-07    -6.923    -6.923    -0.000     -3.99
   H+              1.195e-07   1.194e-07    -6.923    -6.923    -0.000      0.00
   H2O             5.551e+01   1.000e+00     1.744    -0.000     0.000     18.09

------------------------------Saturation indices-------------------------------

  Phase               SI** log IAP   log K(302 K,   1 atm)

  H2O(g)           -1.39     -0.00    1.39  H2O	 Pressure   0.0 atm, phi 1.000

**For a gas, SI = log10(fugacity). Fugacity = pressure * phi / 1 atm.
  For ideal gases, phi = 1.

-----------------------------------------
Beginning of batch-reaction calculations.
-----------------------------------------

Reaction step 1.

Using solution 1.	
Using gas phase 1.	
Using reaction 1.	

Reaction 1.	

	  0.000e+00 moles of the following reaction have been added:

	                 Relative
	Reactant            moles

	CO2                  1.00000

	                 Relative
	Element             moles
	C                    1.00000
	O                    2.00000

-----------------------------------Gas phase-----------------------------------

Total pressure:  0.04      atmospheres          (Peng-Robinson calculation)
    Gas volume:   1.00e-01 liters
  Molar volume:   6.03e+02 liters/mole
   P * Vm / RT:  0.99939  (Compressibility Factor Z) 

                                                        Moles in gas
                                            ----------------------------------
Component         log P           P    phi     Initial       Final       Delta

CO2(g)            -4.06   8.645e-05  1.000   4.088e-06   3.482e-07  -3.740e-06
H2O(g)            -1.39   4.107e-02  0.999   4.088e-05   1.654e-04   1.246e-04

-----------------------------Solution composition------------------------------

	Elements           Molality       Moles

	C                 3.740e-06   3.740e-06

----------------------------Description of solution----------------------------

                                       pH  =   5.948      Charge balance
                                       pe  =   4.000      Adjusted to redox equilibrium
      Specific Conductance (µS/cm,  30°C)  = 0
                          Density (g/cm³)  =   0.99572
                               Volume (L)  =   1.00429
                        Viscosity (mPa s)  =   0.80406
                        Activity of water  =   1.000
                 Ionic strength (mol/kgw)  =   1.129e-06
                       Mass of water (kg)  =   1.000e+00
                 Total alkalinity (eq/kg)  =   1.244e-17
                       Total CO2 (mol/kg)  =   3.740e-06
                         Temperature (°C)  =  29.60
                           Pressure (atm)  =  0.04
                  Electrical balance (eq)  =  -1.244e-17
 Percent error, 100*(Cat-|An|)/(Cat+|An|)  =  -0.00
                               Iterations  =  18
                         Gamma iterations  =   2
                      Osmotic coefficient  =   0.99981
                         Density of water  =   0.99572
                                  Total H  = 1.110122e+02
                                  Total O  = 5.550610e+01

----------------------------Distribution of species----------------------------

                                                    MacInnes  MacInnes
                                MacInnes       Log       Log       Log    mole V
   Species          Molality    Activity  Molality  Activity     Gamma   cm³/mol

   H+              1.129e-06   1.128e-06    -5.947    -5.948    -0.001      0.00
   OH-             1.266e-08   1.265e-08    -7.898    -7.898    -0.001     -3.99
   H2O             5.551e+01   1.000e+00     1.744    -0.000     0.000     18.09
C(4)          3.740e-06
   CO2             2.623e-06   2.623e-06    -5.581    -5.581    -0.000     35.01
   HCO3-           1.116e-06   1.115e-06    -5.952    -5.953    -0.001     22.78
   CO3-2           4.965e-11   4.940e-11   -10.304   -10.306    -0.002     -4.72

------------------------------Saturation indices-------------------------------

  Phase               SI** log IAP   log K(302 K,   0 atm)

  CO2(g)           -4.06     -5.58   -1.52  CO2	 Pressure   0.0 atm, phi 1.000
  H2O(g)           -1.39     -0.00    1.39  H2O	 Pressure   0.0 atm, phi 0.999

**For a gas, SI = log10(fugacity). Fugacity = pressure * phi / 1 atm.
  For ideal gases, phi = 1.

Reaction step 2.

Using solution 1.	
Using gas phase 1.	
Using reaction 1.	

Reaction 1.	

	  1.900e-01 moles of the following reaction have been added:

	                 Relative
	Reactant            moles

	CO2                  1.00000

	                 Relative
	Element             moles
	C                    1.00000
	O                    2.00000

-----------------------------------Gas phase-----------------------------------

Total pressure:  5.69      atmospheres          (Peng-Robinson calculation)
    Gas volume:   1.00e-01 liters
  Molar volume:   4.23e+00 liters/mole
   P * Vm / RT:  0.96927  (Compressibility Factor Z) 

                                                        Moles in gas
                                            ----------------------------------
Component         log P           P    phi     Initial       Final       Delta

CO2(g)             0.75   5.650e+00  0.970   3.482e-07   2.346e-02   2.346e-02
H2O(g)            -1.36   4.329e-02  0.949   1.654e-04   1.798e-04   1.435e-05

-----------------------------Solution composition------------------------------

	Elements           Molality       Moles

	C                 1.665e-01   1.665e-01

----------------------------Description of solution----------------------------

                                       pH  =   3.551      Charge balance
                                       pe  =   4.000      Adjusted to redox equilibrium
      Specific Conductance (µS/cm,  30°C)  = 117
                          Density (g/cm³)  =   0.99749
                               Volume (L)  =   1.00986
                        Viscosity (mPa s)  =   0.81313
                        Activity of water  =   0.997
                 Ionic strength (mol/kgw)  =   2.874e-04
                       Mass of water (kg)  =   1.000e+00
                 Total alkalinity (eq/kg)  =   5.392e-13
                       Total CO2 (mol/kg)  =   1.665e-01
                         Temperature (°C)  =  29.60
                           Pressure (atm)  =  5.69
                  Electrical balance (eq)  =  -5.392e-13
 Percent error, 100*(Cat-|An|)/(Cat+|An|)  =  -0.00
                               Iterations  =  18
                         Gamma iterations  =   3
                      Osmotic coefficient  =   0.99686
                         Density of water  =   0.99597
                                  Total H  = 1.110122e+02
                                  Total O  = 5.583916e+01

----------------------------Distribution of species----------------------------

                                                    MacInnes  MacInnes
                                MacInnes       Log       Log       Log    mole V
   Species          Molality    Activity  Molality  Activity     Gamma   cm³/mol

   H+              2.874e-04   2.813e-04    -3.542    -3.551    -0.009      0.00
   OH-             5.168e-11   5.075e-11   -10.287   -10.295    -0.008     -3.96
   H2O             5.551e+01   9.970e-01     1.744    -0.001     0.000     18.09
C(4)          1.665e-01
   CO2             1.663e-01   1.652e-01    -0.779    -0.782    -0.003     35.00
   HCO3-           2.874e-04   2.822e-04    -3.542    -3.549    -0.008     23.62
   CO3-2           5.446e-11   5.038e-11   -10.264   -10.298    -0.034     -4.59

------------------------------Saturation indices-------------------------------

  Phase               SI** log IAP   log K(302 K,   6 atm)

  CO2(g)            0.74     -0.78   -1.52  CO2	 Pressure   5.6 atm, phi 0.970
  H2O(g)           -1.39     -0.00    1.39  H2O	 Pressure   0.0 atm, phi 0.949

**For a gas, SI = log10(fugacity). Fugacity = pressure * phi / 1 atm.
  For ideal gases, phi = 1.

Reaction step 3.

Using solution 1.	
Using gas phase 1.	
Using reaction 1.	

Reaction 1.	

	  1.900e-01 moles of the following reaction have been added:

	                 Relative
	Reactant            moles

	CO2                  1.00000

	                 Relative
	Element             moles
	C                    1.00000
	O                    2.00000

-----------------------------------Gas phase-----------------------------------

Total pressure: 11.64      atmospheres          (Peng-Robinson calculation)
    Gas volume:   1.00e-01 liters
  Molar volume:   2.00e+00 liters/mole
   P * Vm / RT:  0.93627  (Compressibility Factor Z) 

                                                        Moles in gas
                                            ----------------------------------
Component         log P           P    phi     Initial       Final       Delta

CO2(g)             1.06   1.160e+01  0.939   2.346e-02   4.986e-02   2.640e-02
H2O(g)            -1.34   4.588e-02  0.896   1.798e-04   1.972e-04   1.746e-05

-----------------------------Solution composition------------------------------

	Elements           Molality       Moles

	C                 3.301e-01   3.301e-01

----------------------------Description of solution----------------------------

                                       pH  =   3.403      Charge balance
                                       pe  =   4.000      Adjusted to redox equilibrium
      Specific Conductance (µS/cm,  30°C)  = 162
                          Density (g/cm³)  =   0.99922
                               Volume (L)  =   1.01532
                        Viscosity (mPa s)  =   0.82201
                        Activity of water  =   0.994
                 Ionic strength (mol/kgw)  =   4.058e-04
                       Mass of water (kg)  =   1.000e+00
                 Total alkalinity (eq/kg)  =   1.292e-12
                       Total CO2 (mol/kg)  =   3.301e-01
                         Temperature (°C)  =  29.60
                           Pressure (atm)  = 11.64
                  Electrical balance (eq)  =  -1.292e-12
 Percent error, 100*(Cat-|An|)/(Cat+|An|)  =  -0.00
                               Iterations  =  18
                         Gamma iterations  =   3
                      Osmotic coefficient  =   0.99378
                         Density of water  =   0.99624
                                  Total H  = 1.110121e+02
                                  Total O  = 5.616635e+01

----------------------------Distribution of species----------------------------

                                                    MacInnes  MacInnes
                                MacInnes       Log       Log       Log    mole V
   Species          Molality    Activity  Molality  Activity     Gamma   cm³/mol

   H+              4.058e-04   3.952e-04    -3.392    -3.403    -0.012      0.00
   OH-             3.696e-11   3.621e-11   -10.432   -10.441    -0.009     -3.94
   H2O             5.551e+01   9.941e-01     1.744    -0.003     0.000     18.08
C(4)          3.301e-01
   CO2             3.297e-01   3.257e-01    -0.482    -0.487    -0.005     34.99
   HCO3-           4.058e-04   3.976e-04    -3.392    -3.401    -0.009     23.71
   CO3-2           5.567e-11   5.088e-11   -10.254   -10.293    -0.039     -4.52

------------------------------Saturation indices-------------------------------

  Phase               SI** log IAP   log K(302 K,  12 atm)

  CO2(g)            1.04     -0.49   -1.52  CO2	 Pressure  11.6 atm, phi 0.939
  H2O(g)           -1.39     -0.00    1.38  H2O	 Pressure   0.0 atm, phi 0.896

**For a gas, SI = log10(fugacity). Fugacity = pressure * phi / 1 atm.
  For ideal gases, phi = 1.

Reaction step 4.

Using solution 1.	
Using gas phase 1.	
Using reaction 1.	

Reaction 1.	

	  1.900e-01 moles of the following reaction have been added:

	                 Relative
	Reactant            moles

	CO2                  1.00000

	                 Relative
	Element             moles
	C                    1.00000
	O                    2.00000

-----------------------------------Gas phase-----------------------------------

Total pressure: 17.92      atmospheres          (Peng-Robinson calculation)
    Gas volume:   1.00e-01 liters
  Molar volume:   1.25e+00 liters/mole
   P * Vm / RT:  0.90009  (Compressibility Factor Z) 

                                                        Moles in gas
                                            ----------------------------------
Component         log P           P    phi     Initial       Final       Delta

CO2(g)             1.25   1.788e+01  0.907   4.986e-02   7.994e-02   3.008e-02
H2O(g)            -1.31   4.892e-02  0.842   1.972e-04   2.187e-04   2.150e-05

-----------------------------Solution composition------------------------------

	Elements           Molality       Moles

	C                 4.901e-01   4.901e-01

----------------------------Description of solution----------------------------

                                       pH  =   3.318      Charge balance
                                       pe  =   4.000      Adjusted to redox equilibrium
      Specific Conductance (µS/cm,  30°C)  = 195
                          Density (g/cm³)  =   1.00092
                               Volume (L)  =   1.02062
                        Viscosity (mPa s)  =   0.83070
                        Activity of water  =   0.991
                 Ionic strength (mol/kgw)  =   4.953e-04
                       Mass of water (kg)  =   1.000e+00
                 Total alkalinity (eq/kg)  =   1.973e-12
                       Total CO2 (mol/kg)  =   4.901e-01
                         Temperature (°C)  =  29.60
                           Pressure (atm)  = 17.92
                  Electrical balance (eq)  =  -1.973e-12
 Percent error, 100*(Cat-|An|)/(Cat+|An|)  =  -0.00
                               Iterations  =  19
                         Gamma iterations  =   3
                      Osmotic coefficient  =   0.99078
                         Density of water  =   0.99652
                                  Total H  = 1.110121e+02
                                  Total O  = 5.648617e+01

----------------------------Distribution of species----------------------------

                                                    MacInnes  MacInnes
                                MacInnes       Log       Log       Log    mole V
   Species          Molality    Activity  Molality  Activity     Gamma   cm³/mol

   H+              4.953e-04   4.804e-04    -3.305    -3.318    -0.013      0.00
   OH-             3.051e-11   2.987e-11   -10.516   -10.525    -0.009     -3.93
   H2O             5.551e+01   9.913e-01     1.744    -0.004     0.000     18.08
C(4)          4.901e-01
   CO2             4.896e-01   4.806e-01    -0.310    -0.318    -0.008     34.99
   HCO3-           4.953e-04   4.849e-04    -3.305    -3.314    -0.009     23.77
   CO3-2           5.663e-11   5.141e-11   -10.247   -10.289    -0.042     -4.45

------------------------------Saturation indices-------------------------------

  Phase               SI** log IAP   log K(302 K,  18 atm)

  CO2(g)            1.21     -0.32   -1.53  CO2	 Pressure  17.9 atm, phi 0.907
  H2O(g)           -1.39     -0.00    1.38  H2O	 Pressure   0.0 atm, phi 0.842

**For a gas, SI = log10(fugacity). Fugacity = pressure * phi / 1 atm.
  For ideal gases, phi = 1.

Reaction step 5.

Using solution 1.	
Using gas phase 1.	
Using reaction 1.	

Reaction 1.	

	  1.900e-01 moles of the following reaction have been added:

	                 Relative
	Reactant            moles

	CO2                  1.00000

	                 Relative
	Element             moles
	C                    1.00000
	O                    2.00000

-----------------------------------Gas phase-----------------------------------

Total pressure: 24.57      atmospheres          (Peng-Robinson calculation)
    Gas volume:   1.00e-01 liters
  Molar volume:   8.69e-01 liters/mole
   P * Vm / RT:  0.85998  (Compressibility Factor Z) 

                                                        Moles in gas
                                            ----------------------------------
Component         log P           P    phi     Initial       Final       Delta

CO2(g)             1.39   2.452e+01  0.874   7.994e-02   1.148e-01   3.483e-02
H2O(g)            -1.28   5.254e-02  0.786   2.187e-04   2.459e-04   2.715e-05

-----------------------------Solution composition------------------------------

	Elements           Molality       Moles

	C                 6.452e-01   6.452e-01

----------------------------Description of solution----------------------------

                                       pH  =   3.259      Charge balance
                                       pe  =   4.000      Adjusted to redox equilibrium
      Specific Conductance (µS/cm,  30°C)  = 221
                          Density (g/cm³)  =   1.00258
                               Volume (L)  =   1.02575
                        Viscosity (mPa s)  =   0.83912
                        Activity of water  =   0.989
                 Ionic strength (mol/kgw)  =   5.692e-04
                       Mass of water (kg)  =   1.000e+00
                 Total alkalinity (eq/kg)  =   2.069e-12
                       Total CO2 (mol/kg)  =   6.452e-01
                         Temperature (°C)  =  29.60
                           Pressure (atm)  = 24.57
                  Electrical balance (eq)  =  -2.069e-12
 Percent error, 100*(Cat-|An|)/(Cat+|An|)  =  -0.00
                               Iterations  =  21
                         Gamma iterations  =   3
                      Osmotic coefficient  =   0.98786
                         Density of water  =   0.99681
                                  Total H  = 1.110120e+02
                                  Total O  = 5.679647e+01

----------------------------Distribution of species----------------------------

                                                    MacInnes  MacInnes
                                MacInnes       Log       Log       Log    mole V
   Species          Molality    Activity  Molality  Activity     Gamma   cm³/mol

   H+              5.692e-04   5.502e-04    -3.245    -3.259    -0.015      0.00
   OH-             2.673e-11   2.616e-11   -10.573   -10.582    -0.009     -3.91
   H2O             5.551e+01   9.886e-01     1.744    -0.005     0.000     18.07
C(4)          6.452e-01
   CO2             6.447e-01   6.292e-01    -0.191    -0.201    -0.011     34.98
   HCO3-           5.692e-04   5.570e-04    -3.245    -3.254    -0.009     23.82
   CO3-2           5.749e-11   5.195e-11   -10.240   -10.284    -0.044     -4.38

------------------------------Saturation indices-------------------------------

  Phase               SI** log IAP   log K(302 K,  25 atm)

  CO2(g)            1.33     -0.20   -1.53  CO2	 Pressure  24.5 atm, phi 0.874
  H2O(g)           -1.38     -0.00    1.38  H2O	 Pressure   0.1 atm, phi 0.786

**For a gas, SI = log10(fugacity). Fugacity = pressure * phi / 1 atm.
  For ideal gases, phi = 1.

Reaction step 6.

Using solution 1.	
Using gas phase 1.	
Using reaction 1.	

Reaction 1.	

	  1.900e-01 moles of the following reaction have been added:

	                 Relative
	Reactant            moles

	CO2                  1.00000

	                 Relative
	Element             moles
	C                    1.00000
	O                    2.00000

-----------------------------------Gas phase-----------------------------------

Total pressure: 31.63      atmospheres          (Peng-Robinson calculation)
    Gas volume:   1.00e-01 liters
  Molar volume:   6.40e-01 liters/mole
   P * Vm / RT:  0.81495  (Compressibility Factor Z) 

                                                        Moles in gas
                                            ----------------------------------
Component         log P           P    phi     Initial       Final       Delta

CO2(g)             1.50   3.157e+01  0.839   1.148e-01   1.559e-01   4.115e-02
H2O(g)            -1.24   5.695e-02  0.727   2.459e-04   2.813e-04   3.537e-05

-----------------------------Solution composition------------------------------

	Elements           Molality       Moles

	C                 7.941e-01   7.941e-01

----------------------------Description of solution----------------------------

                                       pH  =   3.215      Charge balance
                                       pe  =   4.000      Adjusted to redox equilibrium
      Specific Conductance (µS/cm,  30°C)  = 243
                          Density (g/cm³)  =   1.00418
                               Volume (L)  =   1.03063
                        Viscosity (mPa s)  =   0.84721
                        Activity of water  =   0.986
                 Ionic strength (mol/kgw)  =   6.324e-04
                       Mass of water (kg)  =   1.000e+00
                 Total alkalinity (eq/kg)  =   2.439e-12
                       Total CO2 (mol/kg)  =   7.941e-01
                         Temperature (°C)  =  29.60
                           Pressure (atm)  = 31.63
                  Electrical balance (eq)  =  -2.439e-12
 Percent error, 100*(Cat-|An|)/(Cat+|An|)  =  -0.00
                               Iterations  =  21
                         Gamma iterations  =   3
                      Osmotic coefficient  =   0.98506
                         Density of water  =   0.99712
                                  Total H  = 1.110120e+02
                                  Total O  = 5.709414e+01

----------------------------Distribution of species----------------------------

                                                    MacInnes  MacInnes
                                MacInnes       Log       Log       Log    mole V
   Species          Molality    Activity  Molality  Activity     Gamma   cm³/mol

   H+              6.324e-04   6.095e-04    -3.199    -3.215    -0.016      0.00
   OH-             2.422e-11   2.370e-11   -10.616   -10.625    -0.009     -3.89
   H2O             5.551e+01   9.860e-01     1.744    -0.006     0.000     18.07
C(4)          7.941e-01
   CO2             7.935e-01   7.701e-01    -0.100    -0.113    -0.013     34.97
   HCO3-           6.324e-04   6.189e-04    -3.199    -3.208    -0.009     23.87
   CO3-2           5.831e-11   5.252e-11   -10.234   -10.280    -0.045     -4.31

------------------------------Saturation indices-------------------------------

  Phase               SI** log IAP   log K(302 K,  32 atm)

  CO2(g)            1.42     -0.11   -1.54  CO2	 Pressure  31.6 atm, phi 0.839
  H2O(g)           -1.38     -0.01    1.38  H2O	 Pressure   0.1 atm, phi 0.727

**For a gas, SI = log10(fugacity). Fugacity = pressure * phi / 1 atm.
  For ideal gases, phi = 1.

Reaction step 7.

Using solution 1.	
Using gas phase 1.	
Using reaction 1.	

Reaction 1.	

	  1.900e-01 moles of the following reaction have been added:

	                 Relative
	Reactant            moles

	CO2                  1.00000

	                 Relative
	Element             moles
	C                    1.00000
	O                    2.00000

-----------------------------------Gas phase-----------------------------------

Total pressure: 39.09      atmospheres          (Peng-Robinson calculation)
    Gas volume:   1.00e-01 liters
  Molar volume:   4.85e-01 liters/mole
   P * Vm / RT:  0.76361  (Compressibility Factor Z) 

                                                        Moles in gas
                                            ----------------------------------
Component         log P           P    phi     Initial       Final       Delta

CO2(g)             1.59   3.903e+01  0.803   1.559e-01   2.057e-01   4.982e-02
H2O(g)            -1.20   6.245e-02  0.665   2.813e-04   3.292e-04   4.793e-05

-----------------------------Solution composition------------------------------

	Elements           Molality       Moles

	C                 9.343e-01   9.343e-01

----------------------------Description of solution----------------------------

                                       pH  =   3.180      Charge balance
                                       pe  =   4.000      Adjusted to redox equilibrium
      Specific Conductance (µS/cm,  30°C)  = 260
                          Density (g/cm³)  =   1.00572
                               Volume (L)  =   1.03519
                        Viscosity (mPa s)  =   0.85483
                        Activity of water  =   0.984
                 Ionic strength (mol/kgw)  =   6.871e-04
                       Mass of water (kg)  =   1.000e+00
                 Total alkalinity (eq/kg)  =   2.496e-12
                       Total CO2 (mol/kg)  =   9.343e-01
                         Temperature (°C)  =  29.60
                           Pressure (atm)  = 39.09
                  Electrical balance (eq)  =  -2.496e-12
 Percent error, 100*(Cat-|An|)/(Cat+|An|)  =  -0.00
                               Iterations  =  25
                         Gamma iterations  =   3
                      Osmotic coefficient  =   0.98242
                         Density of water  =   0.99746
                                  Total H  = 1.110119e+02
                                  Total O  = 5.737446e+01

----------------------------Distribution of species----------------------------

                                                    MacInnes  MacInnes
                                MacInnes       Log       Log       Log    mole V
   Species          Molality    Activity  Molality  Activity     Gamma   cm³/mol

   H+              6.871e-04   6.606e-04    -3.163    -3.180    -0.017      0.00
   OH-             2.243e-11   2.196e-11   -10.649   -10.658    -0.009     -3.87
   H2O             5.551e+01   9.836e-01     1.744    -0.007     0.000     18.06
C(4)          9.343e-01
   CO2             9.336e-01   9.013e-01    -0.030    -0.045    -0.015     34.96
   HCO3-           6.871e-04   6.726e-04    -3.163    -3.172    -0.009     23.91
   CO3-2           5.909e-11   5.311e-11   -10.228   -10.275    -0.046     -4.23

------------------------------Saturation indices-------------------------------

  Phase               SI** log IAP   log K(302 K,  39 atm)

  CO2(g)            1.50     -0.05   -1.54  CO2	 Pressure  39.0 atm, phi 0.803
  H2O(g)           -1.38     -0.01    1.37  H2O	 Pressure   0.1 atm, phi 0.665

**For a gas, SI = log10(fugacity). Fugacity = pressure * phi / 1 atm.
  For ideal gases, phi = 1.

Reaction step 8.

Using solution 1.	
Using gas phase 1.	
Using reaction 1.	

Reaction 1.	

	  1.900e-01 moles of the following reaction have been added:

	                 Relative
	Reactant            moles

	CO2                  1.00000

	                 Relative
	Element             moles
	C                    1.00000
	O                    2.00000

-----------------------------------Gas phase-----------------------------------

Total pressure: 46.93      atmospheres          (Peng-Robinson calculation)
    Gas volume:   1.00e-01 liters
  Molar volume:   3.73e-01 liters/mole
   P * Vm / RT:  0.70411  (Compressibility Factor Z) 

                                                        Moles in gas
                                            ----------------------------------
Component         log P           P    phi     Initial       Final       Delta

CO2(g)             1.67   4.686e+01  0.765   2.057e-01   2.679e-01   6.213e-02
H2O(g)            -1.16   6.953e-02  0.599   3.292e-04   3.975e-04   6.826e-05

-----------------------------Solution composition------------------------------

	Elements           Molality       Moles

	C                 1.062e+00   1.062e+00

----------------------------Description of solution----------------------------

                                       pH  =   3.152      Charge balance
                                       pe  =   4.000      Adjusted to redox equilibrium
      Specific Conductance (µS/cm,  30°C)  = 275
                          Density (g/cm³)  =   1.00716
                               Volume (L)  =   1.03930
                        Viscosity (mPa s)  =   0.86178
                        Activity of water  =   0.981
                 Ionic strength (mol/kgw)  =   7.341e-04
                       Mass of water (kg)  =   1.000e+00
                 Total alkalinity (eq/kg)  =   2.617e-12
                       Total CO2 (mol/kg)  =   1.062e+00
                         Temperature (°C)  =  29.60
                           Pressure (atm)  = 46.93
                  Electrical balance (eq)  =  -2.616e-12
 Percent error, 100*(Cat-|An|)/(Cat+|An|)  =  -0.00
                               Iterations  =  25
                         Gamma iterations  =   3
                      Osmotic coefficient  =   0.98002
                         Density of water  =   0.99780
                                  Total H  = 1.110117e+02
                                  Total O  = 5.763013e+01

----------------------------Distribution of species----------------------------

                                                    MacInnes  MacInnes
                                MacInnes       Log       Log       Log    mole V
   Species          Molality    Activity  Molality  Activity     Gamma   cm³/mol

   H+              7.341e-04   7.042e-04    -3.134    -3.152    -0.018      0.00
   OH-             2.114e-11   2.070e-11   -10.675   -10.684    -0.009     -3.85
   H2O             5.551e+01   9.814e-01     1.744    -0.008     0.000     18.06
C(4)          1.062e+00
   CO2             1.061e+00   1.020e+00     0.026     0.009    -0.017     34.95
   HCO3-           7.341e-04   7.188e-04    -3.134    -3.143    -0.009     23.94
   CO3-2           5.986e-11   5.372e-11   -10.223   -10.270    -0.047     -4.16

------------------------------Saturation indices-------------------------------

  Phase               SI** log IAP   log K(302 K,  47 atm)

  CO2(g)            1.55      0.01   -1.55  CO2	 Pressure  46.9 atm, phi 0.765
  H2O(g)           -1.38     -0.01    1.37  H2O	 Pressure   0.1 atm, phi 0.599

**For a gas, SI = log10(fugacity). Fugacity = pressure * phi / 1 atm.
  For ideal gases, phi = 1.

Reaction step 9.

Using solution 1.	
Using gas phase 1.	
Using reaction 1.	

Reaction 1.	

	  1.900e-01 moles of the following reaction have been added:

	                 Relative
	Reactant            moles

	CO2                  1.00000

	                 Relative
	Element             moles
	C                    1.00000
	O                    2.00000

-----------------------------------Gas phase-----------------------------------

Total pressure: 54.91      atmospheres          (Peng-Robinson calculation)
    Gas volume:   1.00e-01 liters
  Molar volume:   2.87e-01 liters/mole
   P * Vm / RT:  0.63413  (Compressibility Factor Z) 

                                                        Moles in gas
                                            ----------------------------------
Component         log P           P    phi     Initial       Final       Delta

CO2(g)             1.74   5.483e+01  0.727   2.679e-01   3.480e-01   8.015e-02
H2O(g)            -1.10   7.889e-02  0.530   3.975e-04   5.007e-04   1.033e-04

-----------------------------Solution composition------------------------------

	Elements           Molality       Moles

	C                 1.172e+00   1.172e+00

----------------------------Description of solution----------------------------

                                       pH  =   3.131      Charge balance
                                       pe  =   4.000      Adjusted to redox equilibrium
      Specific Conductance (µS/cm,  30°C)  = 287
                          Density (g/cm³)  =   1.00844
                               Volume (L)  =   1.04277
                        Viscosity (mPa s)  =   0.86775
                        Activity of water  =   0.980
                 Ionic strength (mol/kgw)  =   7.730e-04
                       Mass of water (kg)  =   1.000e+00
                 Total alkalinity (eq/kg)  =   2.751e-12
                       Total CO2 (mol/kg)  =   1.172e+00
                         Temperature (°C)  =  29.60
                           Pressure (atm)  = 54.91
                  Electrical balance (eq)  =  -2.751e-12
 Percent error, 100*(Cat-|An|)/(Cat+|An|)  =  -0.00
                               Iterations  =  25
                         Gamma iterations  =   3
                      Osmotic coefficient  =   0.97795
                         Density of water  =   0.99816
                                  Total H  = 1.110115e+02
                                  Total O  = 5.784973e+01

----------------------------Distribution of species----------------------------

                                                    MacInnes  MacInnes
                                MacInnes       Log       Log       Log    mole V
   Species          Molality    Activity  Molality  Activity     Gamma   cm³/mol

   H+              7.730e-04   7.401e-04    -3.112    -3.131    -0.019      0.00
   OH-             2.021e-11   1.979e-11   -10.695   -10.704    -0.009     -3.83
   H2O             5.551e+01   9.795e-01     1.744    -0.009     0.000     18.05
C(4)          1.172e+00
   CO2             1.171e+00   1.121e+00     0.069     0.049    -0.019     34.94
   HCO3-           7.730e-04   7.571e-04    -3.112    -3.121    -0.009     23.98
   CO3-2           6.060e-11   5.432e-11   -10.218   -10.265    -0.048     -4.08

------------------------------Saturation indices-------------------------------

  Phase               SI** log IAP   log K(302 K,  55 atm)

  CO2(g)            1.60      0.05   -1.55  CO2	 Pressure  54.8 atm, phi 0.727
  H2O(g)           -1.38     -0.01    1.37  H2O	 Pressure   0.1 atm, phi 0.530

**For a gas, SI = log10(fugacity). Fugacity = pressure * phi / 1 atm.
  For ideal gases, phi = 1.

Reaction step 10.

Using solution 1.	
Using gas phase 1.	
Using reaction 1.	

Reaction 1.	

	  1.900e-01 moles of the following reaction have been added:

	                 Relative
	Reactant            moles

	CO2                  1.00000

	                 Relative
	Element             moles
	C                    1.00000
	O                    2.00000

-----------------------------------Gas phase-----------------------------------

Total pressure: 62.39      atmospheres          (Peng-Robinson calculation)
    Gas volume:   1.00e-01 liters
  Molar volume:   2.20e-01 liters/mole
   P * Vm / RT:  0.55183  (Compressibility Factor Z) 

                                                        Moles in gas
                                            ----------------------------------
Component         log P           P    phi     Initial       Final       Delta

CO2(g)             1.79   6.230e+01  0.690   3.480e-01   4.544e-01   1.064e-01
H2O(g)            -1.04   9.149e-02  0.459   5.007e-04   6.674e-04   1.666e-04

-----------------------------Solution composition------------------------------

	Elements           Molality       Moles

	C                 1.256e+00   1.256e+00

----------------------------Description of solution----------------------------

                                       pH  =   3.115      Charge balance
                                       pe  =   4.000      Adjusted to redox equilibrium
      Specific Conductance (µS/cm,  30°C)  = 295
                          Density (g/cm³)  =   1.00947
                               Volume (L)  =   1.04534
                        Viscosity (mPa s)  =   0.87230
                        Activity of water  =   0.978
                 Ionic strength (mol/kgw)  =   8.021e-04
                       Mass of water (kg)  =   1.000e+00
                 Total alkalinity (eq/kg)  =   2.741e-12
                       Total CO2 (mol/kg)  =   1.256e+00
                         Temperature (°C)  =  29.60
                           Pressure (atm)  = 62.39
                  Electrical balance (eq)  =  -2.741e-12
 Percent error, 100*(Cat-|An|)/(Cat+|An|)  =  -0.00
                               Iterations  =  27
                         Gamma iterations  =   3
                      Osmotic coefficient  =   0.97638
                         Density of water  =   0.99849
                                  Total H  = 1.110112e+02
                                  Total O  = 5.801672e+01

----------------------------Distribution of species----------------------------

                                                    MacInnes  MacInnes
                                MacInnes       Log       Log       Log    mole V
   Species          Molality    Activity  Molality  Activity     Gamma   cm³/mol

   H+              8.021e-04   7.670e-04    -3.096    -3.115    -0.019      0.00
   OH-             1.959e-11   1.920e-11   -10.708   -10.717    -0.009     -3.81
   H2O             5.551e+01   9.781e-01     1.744    -0.010     0.000     18.04
C(4)          1.256e+00
   CO2             1.255e+00   1.197e+00     0.099     0.078    -0.021     34.94
   HCO3-           8.021e-04   7.858e-04    -3.096    -3.105    -0.009     24.01
   CO3-2           6.125e-11   5.486e-11   -10.213   -10.261    -0.048     -4.01

------------------------------Saturation indices-------------------------------

  Phase               SI** log IAP   log K(302 K,  62 atm)

  CO2(g)            1.63      0.08   -1.56  CO2	 Pressure  62.3 atm, phi 0.690
  H2O(g)           -1.38     -0.01    1.37  H2O	 Pressure   0.1 atm, phi 0.459

**For a gas, SI = log10(fugacity). Fugacity = pressure * phi / 1 atm.
  For ideal gases, phi = 1.

Reaction step 11.

Using solution 1.	
Using gas phase 1.	
Using reaction 1.	

Reaction 1.	

	  1.900e-01 moles of the following reaction have been added:

	                 Relative
	Reactant            moles

	CO2                  1.00000

	                 Relative
	Element             moles
	C                    1.00000
	O                    2.00000

-----------------------------------Gas phase-----------------------------------

Total pressure: 68.05      atmospheres          (Peng-Robinson calculation)
    Gas volume:   1.00e-01 liters
  Molar volume:   1.68e-01 liters/mole
   P * Vm / RT:  0.45921  (Compressibility Factor Z) 

                                                        Moles in gas
                                            ----------------------------------
Component         log P           P    phi     Initial       Final       Delta

CO2(g)             1.83   6.794e+01  0.662   4.544e-01   5.955e-01   1.411e-01
H2O(g)            -0.97   1.081e-01  0.390   6.674e-04   9.472e-04   2.798e-04

-----------------------------Solution composition------------------------------

	Elements           Molality       Moles

	C                 1.305e+00   1.304e+00

----------------------------Description of solution----------------------------

                                       pH  =   3.106      Charge balance
                                       pe  =   4.000      Adjusted to redox equilibrium
      Specific Conductance (µS/cm,  30°C)  = 301
                          Density (g/cm³)  =   1.01013
                               Volume (L)  =   1.04679
                        Viscosity (mPa s)  =   0.87496
                        Activity of water  =   0.977
                 Ionic strength (mol/kgw)  =   8.195e-04
                       Mass of water (kg)  =   1.000e+00
                 Total alkalinity (eq/kg)  =   2.801e-12
                       Total CO2 (mol/kg)  =   1.305e+00
                         Temperature (°C)  =  29.60
                           Pressure (atm)  = 68.05
                  Electrical balance (eq)  =  -2.801e-12
 Percent error, 100*(Cat-|An|)/(Cat+|An|)  =  -0.00
                               Iterations  =  23
                         Gamma iterations  =   3
                      Osmotic coefficient  =   0.97546
                         Density of water  =   0.99874
                                  Total H  = 1.110106e+02
                                  Total O  = 5.811430e+01

----------------------------Distribution of species----------------------------

                                                    MacInnes  MacInnes
                                MacInnes       Log       Log       Log    mole V
   Species          Molality    Activity  Molality  Activity     Gamma   cm³/mol

   H+              8.195e-04   7.829e-04    -3.086    -3.106    -0.020      0.00
   OH-             1.927e-11   1.888e-11   -10.715   -10.724    -0.009     -3.79
   H2O             5.551e+01   9.773e-01     1.744    -0.010     0.000     18.04
C(4)          1.305e+00
   CO2             1.304e+00   1.241e+00     0.115     0.094    -0.021     34.93
   HCO3-           8.195e-04   8.029e-04    -3.086    -3.095    -0.009     24.03
   CO3-2           6.173e-11   5.526e-11   -10.210   -10.258    -0.048     -3.96

------------------------------Saturation indices-------------------------------

  Phase               SI** log IAP   log K(302 K,  68 atm)

  CO2(g)            1.65      0.09   -1.56  CO2	 Pressure  67.9 atm, phi 0.662
  H2O(g)           -1.38     -0.01    1.37  H2O	 Pressure   0.1 atm, phi 0.390

**For a gas, SI = log10(fugacity). Fugacity = pressure * phi / 1 atm.
  For ideal gases, phi = 1.

Reaction step 12.

Using solution 1.	
Using gas phase 1.	
Using reaction 1.	

Reaction 1.	

	  1.900e-01 moles of the following reaction have been added:

	                 Relative
	Reactant            moles

	CO2                  1.00000

	                 Relative
	Element             moles
	C                    1.00000
	O                    2.00000

-----------------------------------Gas phase-----------------------------------

Total pressure: 70.41      atmospheres          (Peng-Robinson calculation)
    Gas volume:   1.00e-01 liters
  Molar volume:   1.30e-01 liters/mole
   P * Vm / RT:  0.36737  (Compressibility Factor Z) 

                                                        Moles in gas
                                            ----------------------------------
Component         log P           P    phi     Initial       Final       Delta

CO2(g)             1.85   7.028e+01  0.649   5.955e-01   7.701e-01   1.746e-01
H2O(g)            -0.89   1.278e-01  0.330   9.472e-04   1.400e-03   4.529e-04

-----------------------------Solution composition------------------------------

	Elements           Molality       Moles

	C                 1.320e+00   1.320e+00

----------------------------Description of solution----------------------------

                                       pH  =   3.103      Charge balance
                                       pe  =   4.000      Adjusted to redox equilibrium
      Specific Conductance (µS/cm,  30°C)  = 302
                          Density (g/cm³)  =   1.01037
                               Volume (L)  =   1.04721
                        Viscosity (mPa s)  =   0.87580
                        Activity of water  =   0.977
                 Ionic strength (mol/kgw)  =   8.252e-04
                       Mass of water (kg)  =   1.000e+00
                 Total alkalinity (eq/kg)  =   3.445e-12
                       Total CO2 (mol/kg)  =   1.320e+00
                         Temperature (°C)  =  29.60
                           Pressure (atm)  = 70.41
                  Electrical balance (eq)  =  -3.445e-12
 Percent error, 100*(Cat-|An|)/(Cat+|An|)  =  -0.00
                               Iterations  =  15
                         Gamma iterations  =   3
                      Osmotic coefficient  =   0.97516
                         Density of water  =   0.99884
                                  Total H  = 1.110097e+02
                                  Total O  = 5.814474e+01

----------------------------Distribution of species----------------------------

                                                    MacInnes  MacInnes
                                MacInnes       Log       Log       Log    mole V
   Species          Molality    Activity  Molality  Activity     Gamma   cm³/mol

   H+              8.252e-04   7.881e-04    -3.083    -3.103    -0.020      0.00
   OH-             1.918e-11   1.879e-11   -10.717   -10.726    -0.009     -3.79
   H2O             5.551e+01   9.771e-01     1.744    -0.010     0.000     18.04
C(4)          1.320e+00
   CO2             1.319e+00   1.255e+00     0.120     0.099    -0.022     34.93
   HCO3-           8.252e-04   8.085e-04    -3.083    -3.092    -0.009     24.04
   CO3-2           6.192e-11   5.542e-11   -10.208   -10.256    -0.048     -3.93

------------------------------Saturation indices-------------------------------

  Phase               SI** log IAP   log K(302 K,  70 atm)

  CO2(g)            1.66      0.10   -1.56  CO2	 Pressure  70.3 atm, phi 0.649
  H2O(g)           -1.37     -0.01    1.36  H2O	 Pressure   0.1 atm, phi 0.330

**For a gas, SI = log10(fugacity). Fugacity = pressure * phi / 1 atm.
  For ideal gases, phi = 1.

Reaction step 13.

Using solution 1.	
Using gas phase 1.	
Using reaction 1.	

Reaction 1.	

	  1.900e-01 moles of the following reaction have been added:

	                 Relative
	Reactant            moles

	CO2                  1.00000

	                 Relative
	Element             moles
	C                    1.00000
	O                    2.00000

-----------------------------------Gas phase-----------------------------------

Total pressure: 70.45      atmospheres          (Peng-Robinson calculation)
    Gas volume:   1.00e-01 liters
  Molar volume:   1.04e-01 liters/mole
   P * Vm / RT:  0.29477  (Compressibility Factor Z) 

                                                        Moles in gas
                                            ----------------------------------
Component         log P           P    phi     Initial       Final       Delta

CO2(g)             1.85   7.030e+01  0.649   7.701e-01   9.600e-01   1.899e-01
H2O(g)            -0.82   1.496e-01  0.282   1.400e-03   2.044e-03   6.435e-04

-----------------------------Solution composition------------------------------

	Elements           Molality       Moles

	C                 1.320e+00   1.320e+00

----------------------------Description of solution----------------------------

                                       pH  =   3.103      Charge balance
                                       pe  =   4.000      Adjusted to redox equilibrium
      Specific Conductance (µS/cm,  30°C)  = 302
                          Density (g/cm³)  =   1.01037
                               Volume (L)  =   1.04720
                        Viscosity (mPa s)  =   0.87581
                        Activity of water  =   0.977
                 Ionic strength (mol/kgw)  =   8.252e-04
                       Mass of water (kg)  =   9.999e-01
                 Total alkalinity (eq/kg)  =   2.800e-12
                       Total CO2 (mol/kg)  =   1.320e+00
                         Temperature (°C)  =  29.60
                           Pressure (atm)  = 70.45
                  Electrical balance (eq)  =  -2.800e-12
 Percent error, 100*(Cat-|An|)/(Cat+|An|)  =  -0.00
                               Iterations  =   8
                         Gamma iterations  =   2
                      Osmotic coefficient  =   0.97516
                         Density of water  =   0.99884
                                  Total H  = 1.110084e+02
                                  Total O  = 5.814424e+01

----------------------------Distribution of species----------------------------

                                                    MacInnes  MacInnes
                                MacInnes       Log       Log       Log    mole V
   Species          Molality    Activity  Molality  Activity     Gamma   cm³/mol

   H+              8.252e-04   7.882e-04    -3.083    -3.103    -0.020      0.00
   OH-             1.918e-11   1.879e-11   -10.717   -10.726    -0.009     -3.79
   H2O             5.551e+01   9.771e-01     1.744    -0.010     0.000     18.04
C(4)          1.320e+00
   CO2             1.319e+00   1.255e+00     0.120     0.099    -0.022     34.93
   HCO3-           8.252e-04   8.086e-04    -3.083    -3.092    -0.009     24.04
   CO3-2           6.192e-11   5.543e-11   -10.208   -10.256    -0.048     -3.93

------------------------------Saturation indices-------------------------------

  Phase               SI** log IAP   log K(302 K,  70 atm)

  CO2(g)            1.66      0.10   -1.56  CO2	 Pressure  70.3 atm, phi 0.649
  H2O(g)           -1.37     -0.01    1.36  H2O	 Pressure   0.1 atm, phi 0.282

**For a gas, SI = log10(fugacity). Fugacity = pressure * phi / 1 atm.
  For ideal gases, phi = 1.

Reaction step 14.

Using solution 1.	
Using gas phase 1.	
Using reaction 1.	

Reaction 1.	

	  1.900e-01 moles of the following reaction have been added:

	                 Relative
	Reactant            moles

	CO2                  1.00000

	                 Relative
	Element             moles
	C                    1.00000
	O                    2.00000

-----------------------------------Gas phase-----------------------------------

Total pressure: 70.40      atmospheres          (Peng-Robinson calculation)
    Gas volume:   1.00e-01 liters
  Molar volume:   8.67e-02 liters/mole
   P * Vm / RT:  0.24562  (Compressibility Factor Z) 

                                                        Moles in gas
                                            ----------------------------------
Component         log P           P    phi     Initial       Final       Delta

CO2(g)             1.85   7.023e+01  0.649   9.600e-01   1.151e+00   1.909e-01
H2O(g)            -0.76   1.750e-01  0.241   2.044e-03   2.868e-03   8.244e-04

-----------------------------Solution composition------------------------------

	Elements           Molality       Moles

	C                 1.319e+00   1.319e+00

----------------------------Description of solution----------------------------

                                       pH  =   3.104      Charge balance
                                       pe  =   4.000      Adjusted to redox equilibrium
      Specific Conductance (µS/cm,  30°C)  = 302
                          Density (g/cm³)  =   1.01036
                               Volume (L)  =   1.04716
                        Viscosity (mPa s)  =   0.87576
                        Activity of water  =   0.977
                 Ionic strength (mol/kgw)  =   8.249e-04
                       Mass of water (kg)  =   9.999e-01
                 Total alkalinity (eq/kg)  =   2.802e-12
                       Total CO2 (mol/kg)  =   1.319e+00
                         Temperature (°C)  =  29.60
                           Pressure (atm)  = 70.40
                  Electrical balance (eq)  =  -2.802e-12
 Percent error, 100*(Cat-|An|)/(Cat+|An|)  =  -0.00
                               Iterations  =  11
                         Gamma iterations  =   2
                      Osmotic coefficient  =   0.97518
                         Density of water  =   0.99884
                                  Total H  = 1.110068e+02
                                  Total O  = 5.814167e+01

----------------------------Distribution of species----------------------------

                                                    MacInnes  MacInnes
                                MacInnes       Log       Log       Log    mole V
   Species          Molality    Activity  Molality  Activity     Gamma   cm³/mol

   H+              8.249e-04   7.879e-04    -3.084    -3.104    -0.020      0.00
   OH-             1.918e-11   1.879e-11   -10.717   -10.726    -0.009     -3.79
   H2O             5.551e+01   9.771e-01     1.744    -0.010     0.000     18.04
C(4)          1.319e+00
   CO2             1.318e+00   1.255e+00     0.120     0.098    -0.022     34.93
   HCO3-           8.249e-04   8.083e-04    -3.084    -3.092    -0.009     24.04
   CO3-2           6.192e-11   5.542e-11   -10.208   -10.256    -0.048     -3.93

------------------------------Saturation indices-------------------------------

  Phase               SI** log IAP   log K(302 K,  70 atm)

  CO2(g)            1.66      0.10   -1.56  CO2	 Pressure  70.2 atm, phi 0.649
  H2O(g)           -1.37     -0.01    1.36  H2O	 Pressure   0.2 atm, phi 0.241

**For a gas, SI = log10(fugacity). Fugacity = pressure * phi / 1 atm.
  For ideal gases, phi = 1.

Reaction step 15.

Using solution 1.	
Using gas phase 1.	
Using reaction 1.	

Reaction 1.	

	  1.900e-01 moles of the following reaction have been added:

	                 Relative
	Reactant            moles

	CO2                  1.00000

	                 Relative
	Element             moles
	C                    1.00000
	O                    2.00000

-----------------------------------Gas phase-----------------------------------

Total pressure: 72.77      atmospheres          (Peng-Robinson calculation)
    Gas volume:   1.00e-01 liters
  Molar volume:   7.47e-02 liters/mole
   P * Vm / RT:  0.21871  (Compressibility Factor Z) 

                                                        Moles in gas
                                            ----------------------------------
Component         log P           P    phi     Initial       Final       Delta

CO2(g)             1.86   7.256e+01  0.633   1.151e+00   1.335e+00   1.845e-01
H2O(g)            -0.68   2.090e-01  0.202   2.868e-03   3.847e-03   9.795e-04

-----------------------------Solution composition------------------------------

	Elements           Molality       Moles

	C                 1.325e+00   1.325e+00

----------------------------Description of solution----------------------------

                                       pH  =   3.102      Charge balance
                                       pe  =   4.000      Adjusted to redox equilibrium
      Specific Conductance (µS/cm,  30°C)  = 303
                          Density (g/cm³)  =   1.01051
                               Volume (L)  =   1.04722
                        Viscosity (mPa s)  =   0.87606
                        Activity of water  =   0.977
                 Ionic strength (mol/kgw)  =   8.277e-04
                       Mass of water (kg)  =   9.999e-01
                 Total alkalinity (eq/kg)  =   2.857e-12
                       Total CO2 (mol/kg)  =   1.325e+00
                         Temperature (°C)  =  29.60
                           Pressure (atm)  = 72.77
                  Electrical balance (eq)  =  -2.857e-12
 Percent error, 100*(Cat-|An|)/(Cat+|An|)  =  -0.00
                               Iterations  =  25
                         Gamma iterations  =   3
                      Osmotic coefficient  =   0.97507
                         Density of water  =   0.99894
                                  Total H  = 1.110048e+02
                                  Total O  = 5.815167e+01

----------------------------Distribution of species----------------------------

                                                    MacInnes  MacInnes
                                MacInnes       Log       Log       Log    mole V
   Species          Molality    Activity  Molality  Activity     Gamma   cm³/mol

   H+              8.277e-04   7.905e-04    -3.082    -3.102    -0.020      0.00
   OH-             1.916e-11   1.877e-11   -10.718   -10.727    -0.009     -3.78
   H2O             5.551e+01   9.770e-01     1.744    -0.010     0.000     18.04
C(4)          1.325e+00
   CO2             1.324e+00   1.259e+00     0.122     0.100    -0.022     34.92
   HCO3-           8.277e-04   8.110e-04    -3.082    -3.091    -0.009     24.05
   CO3-2           6.209e-11   5.557e-11   -10.207   -10.255    -0.048     -3.91

------------------------------Saturation indices-------------------------------

  Phase               SI** log IAP   log K(302 K,  73 atm)

  CO2(g)            1.66      0.10   -1.56  CO2	 Pressure  72.6 atm, phi 0.633
  H2O(g)           -1.37     -0.01    1.36  H2O	 Pressure   0.2 atm, phi 0.202

**For a gas, SI = log10(fugacity). Fugacity = pressure * phi / 1 atm.
  For ideal gases, phi = 1.

Reaction step 16.

Using solution 1.	
Using gas phase 1.	
Using reaction 1.	

Reaction 1.	

	  1.900e-01 moles of the following reaction have been added:

	                 Relative
	Reactant            moles

	CO2                  1.00000

	                 Relative
	Element             moles
	C                    1.00000
	O                    2.00000

-----------------------------------Gas phase-----------------------------------

Total pressure: 81.98      atmospheres          (Peng-Robinson calculation)
    Gas volume:   1.00e-01 liters
  Molar volume:   6.61e-02 liters/mole
   P * Vm / RT:  0.21822  (Compressibility Factor Z) 

                                                        Moles in gas
                                            ----------------------------------
Component         log P           P    phi     Initial       Final       Delta

CO2(g)             1.91   8.171e+01  0.577   1.335e+00   1.507e+00   1.718e-01
H2O(g)            -0.57   2.662e-01  0.160   3.847e-03   4.910e-03   1.063e-03

-----------------------------Solution composition------------------------------

	Elements           Molality       Moles

	C                 1.343e+00   1.343e+00

----------------------------Description of solution----------------------------

                                       pH  =   3.097      Charge balance
                                       pe  =   4.000      Adjusted to redox equilibrium
      Specific Conductance (µS/cm,  30°C)  = 307
                          Density (g/cm³)  =   1.01107
                               Volume (L)  =   1.04742
                        Viscosity (mPa s)  =   0.87706
                        Activity of water  =   0.977
                 Ionic strength (mol/kgw)  =   8.375e-04
                       Mass of water (kg)  =   9.999e-01
                 Total alkalinity (eq/kg)  =   2.978e-12
                       Total CO2 (mol/kg)  =   1.343e+00
                         Temperature (°C)  =  29.60
                           Pressure (atm)  = 81.98
                  Electrical balance (eq)  =  -2.978e-12
 Percent error, 100*(Cat-|An|)/(Cat+|An|)  =  -0.00
                               Iterations  =  33
                         Gamma iterations  =   3
                      Osmotic coefficient  =   0.97473
                         Density of water  =   0.99935
                                  Total H  = 1.110027e+02
                                  Total O  = 5.818694e+01

----------------------------Distribution of species----------------------------

                                                    MacInnes  MacInnes
                                MacInnes       Log       Log       Log    mole V
   Species          Molality    Activity  Molality  Activity     Gamma   cm³/mol

   H+              8.375e-04   7.996e-04    -3.077    -3.097    -0.020      0.00
   OH-             1.909e-11   1.870e-11   -10.719   -10.728    -0.009     -3.76
   H2O             5.551e+01   9.767e-01     1.744    -0.010     0.000     18.03
C(4)          1.343e+00
   CO2             1.342e+00   1.276e+00     0.128     0.106    -0.022     34.91
   HCO3-           8.375e-04   8.206e-04    -3.077    -3.086    -0.009     24.08
   CO3-2           6.277e-11   5.616e-11   -10.202   -10.251    -0.048     -3.83

------------------------------Saturation indices-------------------------------

  Phase               SI** log IAP   log K(302 K,  82 atm)

  CO2(g)            1.67      0.11   -1.57  CO2	 Pressure  81.7 atm, phi 0.577
  H2O(g)           -1.37     -0.01    1.36  H2O	 Pressure   0.3 atm, phi 0.160

**For a gas, SI = log10(fugacity). Fugacity = pressure * phi / 1 atm.
  For ideal gases, phi = 1.

Reaction step 17.

Using solution 1.	
Using gas phase 1.	
Using reaction 1.	

Reaction 1.	

	  1.900e-01 moles of the following reaction have been added:

	                 Relative
	Reactant            moles

	CO2                  1.00000

	                 Relative
	Element             moles
	C                    1.00000
	O                    2.00000

-----------------------------------Gas phase-----------------------------------

Total pressure: 99.73      atmospheres          (Peng-Robinson calculation)
    Gas volume:   1.00e-01 liters
  Molar volume:   5.97e-02 liters/mole
   P * Vm / RT:  0.23969  (Compressibility Factor Z) 

                                                        Moles in gas
                                            ----------------------------------
Component         log P           P    phi     Initial       Final       Delta

CO2(g)             2.00   9.937e+01  0.496   1.507e+00   1.669e+00   1.616e-01
H2O(g)            -0.44   3.592e-01  0.120   4.910e-03   6.032e-03   1.121e-03

-----------------------------Solution composition------------------------------

	Elements           Molality       Moles

	C                 1.371e+00   1.371e+00

----------------------------Description of solution----------------------------

                                       pH  =   3.089      Charge balance
                                       pe  =   4.000      Adjusted to redox equilibrium
      Specific Conductance (µS/cm,  30°C)  = 312
                          Density (g/cm³)  =   1.01209
                               Volume (L)  =   1.04758
                        Viscosity (mPa s)  =   0.87862
                        Activity of water  =   0.976
                 Ionic strength (mol/kgw)  =   8.546e-04
                       Mass of water (kg)  =   9.999e-01
                 Total alkalinity (eq/kg)  =   3.211e-12
                       Total CO2 (mol/kg)  =   1.371e+00
                         Temperature (°C)  =  29.60
                           Pressure (atm)  = 99.73
                  Electrical balance (eq)  =  -3.211e-12
 Percent error, 100*(Cat-|An|)/(Cat+|An|)  =  -0.00
                               Iterations  =  41
                         Gamma iterations  =   3
                      Osmotic coefficient  =   0.97420
                         Density of water  =   1.00013
                                  Total H  = 1.110005e+02
                                  Total O  = 5.824268e+01

----------------------------Distribution of species----------------------------

                                                    MacInnes  MacInnes
                                MacInnes       Log       Log       Log    mole V
   Species          Molality    Activity  Molality  Activity     Gamma   cm³/mol

   H+              8.546e-04   8.154e-04    -3.068    -3.089    -0.020      0.00
   OH-             1.900e-11   1.861e-11   -10.721   -10.730    -0.009     -3.72
   H2O             5.551e+01   9.762e-01     1.744    -0.010     0.000     18.01
C(4)          1.371e+00
   CO2             1.371e+00   1.302e+00     0.137     0.114    -0.022     34.89
   HCO3-           8.546e-04   8.373e-04    -3.068    -3.077    -0.009     24.13
   CO3-2           6.409e-11   5.730e-11   -10.193   -10.242    -0.049     -3.67

------------------------------Saturation indices-------------------------------

  Phase               SI** log IAP   log K(302 K, 100 atm)

  CO2(g)            1.69      0.11   -1.58  CO2	 Pressure  99.4 atm, phi 0.496
  H2O(g)           -1.37     -0.01    1.36  H2O	 Pressure   0.4 atm, phi 0.120

**For a gas, SI = log10(fugacity). Fugacity = pressure * phi / 1 atm.
  For ideal gases, phi = 1.

Reaction step 18.

Using solution 1.	
Using gas phase 1.	
Using reaction 1.	

Reaction 1.	

	  1.900e-01 moles of the following reaction have been added:

	                 Relative
	Reactant            moles

	CO2                  1.00000

	                 Relative
	Element             moles
	C                    1.00000
	O                    2.00000

-----------------------------------Gas phase-----------------------------------

Total pressure: 128.36      atmospheres          (Peng-Robinson calculation)
    Gas volume:   1.00e-01 liters
  Molar volume:   5.47e-02 liters/mole
   P * Vm / RT:  0.28261  (Compressibility Factor Z) 

                                                        Moles in gas
                                            ----------------------------------
Component         log P           P    phi     Initial       Final       Delta

CO2(g)             2.11   1.279e+02  0.412   1.669e+00   1.821e+00   1.523e-01
H2O(g)            -0.30   5.037e-01  0.087   6.032e-03   7.174e-03   1.143e-03

-----------------------------Solution composition------------------------------

	Elements           Molality       Moles

	C                 1.409e+00   1.409e+00

----------------------------Description of solution----------------------------

                                       pH  =   3.076      Charge balance
                                       pe  =   4.000      Adjusted to redox equilibrium
      Specific Conductance (µS/cm,  30°C)  = 321
                          Density (g/cm³)  =   1.01366
                               Volume (L)  =   1.04757
                        Viscosity (mPa s)  =   0.88072
                        Activity of water  =   0.976
                 Ionic strength (mol/kgw)  =   8.799e-04
                       Mass of water (kg)  =   9.999e-01
                 Total alkalinity (eq/kg)  =   3.735e-12
                       Total CO2 (mol/kg)  =   1.409e+00
                         Temperature (°C)  =  29.60
                           Pressure (atm)  = 128.36
                  Electrical balance (eq)  =  -3.735e-12
 Percent error, 100*(Cat-|An|)/(Cat+|An|)  =  -0.00
                               Iterations  =  51
                         Gamma iterations  =   3
                      Osmotic coefficient  =   0.97349
                         Density of water  =   1.00139
                                  Total H  = 1.109982e+02
                                  Total O  = 5.831697e+01

----------------------------Distribution of species----------------------------

                                                    MacInnes  MacInnes
                                MacInnes       Log       Log       Log    mole V
   Species          Molality    Activity  Molality  Activity     Gamma   cm³/mol

   H+              8.799e-04   8.388e-04    -3.056    -3.076    -0.021      0.00
   OH-             1.891e-11   1.853e-11   -10.723   -10.732    -0.009     -3.65
   H2O             5.551e+01   9.756e-01     1.744    -0.011     0.000     17.99
C(4)          1.409e+00
   CO2             1.408e+00   1.335e+00     0.149     0.126    -0.023     34.86
   HCO3-           8.799e-04   8.621e-04    -3.056    -3.064    -0.009     24.22
   CO3-2           6.624e-11   5.916e-11   -10.179   -10.228    -0.049     -3.41

------------------------------Saturation indices-------------------------------

  Phase               SI** log IAP   log K(302 K, 128 atm)

  CO2(g)            1.72      0.13   -1.60  CO2	 Pressure 127.9 atm, phi 0.412
  H2O(g)           -1.36     -0.01    1.35  H2O	 Pressure   0.5 atm, phi 0.087

**For a gas, SI = log10(fugacity). Fugacity = pressure * phi / 1 atm.
  For ideal gases, phi = 1.

Reaction step 19.

Using solution 1.	
Using gas phase 1.	
Using reaction 1.	

Reaction 1.	

	  1.900e-01 moles of the following reaction have been added:

	                 Relative
	Reactant            moles

	CO2                  1.00000

	                 Relative
	Element             moles
	C                    1.00000
	O                    2.00000

-----------------------------------Gas phase-----------------------------------

Total pressure: 170.36      atmospheres          (Peng-Robinson calculation)
    Gas volume:   1.00e-01 liters
  Molar volume:   5.07e-02 liters/mole
   P * Vm / RT:  0.34748  (Compressibility Factor Z) 

                                                        Moles in gas
                                            ----------------------------------
Component         log P           P    phi     Initial       Final       Delta

CO2(g)             2.23   1.696e+02  0.339   1.821e+00   1.965e+00   1.440e-01
H2O(g)            -0.14   7.166e-01  0.063   7.174e-03   8.301e-03   1.126e-03

-----------------------------Solution composition------------------------------

	Elements           Molality       Moles

	C                 1.455e+00   1.455e+00

----------------------------Description of solution----------------------------

                                       pH  =   3.060      Charge balance
                                       pe  =   4.000      Adjusted to redox equilibrium
      Specific Conductance (µS/cm,  30°C)  = 334
                          Density (g/cm³)  =   1.01587
                               Volume (L)  =   1.04726
                        Viscosity (mPa s)  =   0.88334
                        Activity of water  =   0.975
                 Ionic strength (mol/kgw)  =   9.148e-04
                       Mass of water (kg)  =   9.998e-01
                 Total alkalinity (eq/kg)  =   4.220e-12
                       Total CO2 (mol/kg)  =   1.455e+00
                         Temperature (°C)  =  29.60
                           Pressure (atm)  = 170.36
                  Electrical balance (eq)  =  -4.219e-12
 Percent error, 100*(Cat-|An|)/(Cat+|An|)  =  -0.00
                               Iterations  =  72
                         Gamma iterations  =   4
                      Osmotic coefficient  =   0.97262
                         Density of water  =   1.00323
                                  Total H  = 1.109959e+02
                                  Total O  = 5.840775e+01

----------------------------Distribution of species----------------------------

                                                    MacInnes  MacInnes
                                MacInnes       Log       Log       Log    mole V
   Species          Molality    Activity  Molality  Activity     Gamma   cm³/mol

   H+              9.148e-04   8.712e-04    -3.039    -3.060    -0.021      0.00
   OH-             1.886e-11   1.847e-11   -10.724   -10.733    -0.009     -3.55
   H2O             5.551e+01   9.748e-01     1.744    -0.011     0.000     17.96
C(4)          1.455e+00
   CO2             1.454e+00   1.377e+00     0.163     0.139    -0.024     34.81
   HCO3-           9.148e-04   8.961e-04    -3.039    -3.048    -0.009     24.34
   CO3-2           6.946e-11   6.194e-11   -10.158   -10.208    -0.050     -3.05

------------------------------Saturation indices-------------------------------

  Phase               SI** log IAP   log K(302 K, 170 atm)

  CO2(g)            1.76      0.14   -1.62  CO2	 Pressure 169.6 atm, phi 0.339
  H2O(g)           -1.34     -0.01    1.33  H2O	 Pressure   0.7 atm, phi 0.063

**For a gas, SI = log10(fugacity). Fugacity = pressure * phi / 1 atm.
  For ideal gases, phi = 1.

Reaction step 20.

Using solution 1.	
Using gas phase 1.	
Using reaction 1.	

Reaction 1.	

	  1.900e-01 moles of the following reaction have been added:

	                 Relative
	Reactant            moles

	CO2                  1.00000

	                 Relative
	Element             moles
	C                    1.00000
	O                    2.00000

-----------------------------------Gas phase-----------------------------------

Total pressure: 228.65      atmospheres          (Peng-Robinson calculation)
    Gas volume:   1.00e-01 liters
  Molar volume:   4.74e-02 liters/mole
   P * Vm / RT:  0.43593  (Compressibility Factor Z) 

                                                        Moles in gas
                                            ----------------------------------
Component         log P           P    phi     Initial       Final       Delta

CO2(g)             2.36   2.276e+02  0.283   1.965e+00   2.102e+00   1.368e-01
H2O(g)             0.01   1.015e+00  0.046   8.301e-03   9.373e-03   1.073e-03

-----------------------------Solution composition------------------------------

	Elements           Molality       Moles

	C                 1.508e+00   1.508e+00

----------------------------Description of solution----------------------------

                                       pH  =   3.039      Charge balance
                                       pe  =   4.000      Adjusted to redox equilibrium
      Specific Conductance (µS/cm,  30°C)  = 351
                          Density (g/cm³)  =   1.01884
                               Volume (L)  =   1.04649
                        Viscosity (mPa s)  =   0.88648
                        Activity of water  =   0.974
                 Ionic strength (mol/kgw)  =   9.610e-04
                       Mass of water (kg)  =   9.998e-01
                 Total alkalinity (eq/kg)  =   4.681e-12
                       Total CO2 (mol/kg)  =   1.508e+00
                         Temperature (°C)  =  29.60
                           Pressure (atm)  = 228.65
                  Electrical balance (eq)  =  -4.680e-12
 Percent error, 100*(Cat-|An|)/(Cat+|An|)  =  -0.00
                               Iterations  =  92
                         Gamma iterations  =   4
                      Osmotic coefficient  =   0.97162
                         Density of water  =   1.00576
                                  Total H  = 1.109938e+02
                                  Total O  = 5.851305e+01

----------------------------Distribution of species----------------------------

                                                    MacInnes  MacInnes
                                MacInnes       Log       Log       Log    mole V
   Species          Molality    Activity  Molality  Activity     Gamma   cm³/mol

   H+              9.610e-04   9.141e-04    -3.017    -3.039    -0.022      0.00
   OH-             1.886e-11   1.847e-11   -10.724   -10.733    -0.009     -3.41
   H2O             5.551e+01   9.739e-01     1.744    -0.011     0.000     17.91
C(4)          1.508e+00
   CO2             1.507e+00   1.424e+00     0.178     0.154    -0.025     34.75
   HCO3-           9.610e-04   9.412e-04    -3.017    -3.026    -0.009     24.51
   CO3-2           7.409e-11   6.592e-11   -10.130   -10.181    -0.051     -2.56

------------------------------Saturation indices-------------------------------

  Phase               SI** log IAP   log K(302 K, 229 atm)

  CO2(g)            1.81      0.15   -1.66  CO2	 Pressure 227.6 atm, phi 0.283
  H2O(g)           -1.33     -0.01    1.32  H2O	 Pressure   1.0 atm, phi 0.046

**For a gas, SI = log10(fugacity). Fugacity = pressure * phi / 1 atm.
  For ideal gases, phi = 1.

Reaction step 21.

Using solution 1.	
Using gas phase 1.	
Using reaction 1.	

Reaction 1.	

	  1.900e-01 moles of the following reaction have been added:

	                 Relative
	Reactant            moles

	CO2                  1.00000

	                 Relative
	Element             moles
	C                    1.00000
	O                    2.00000

-----------------------------------Gas phase-----------------------------------

Total pressure: 306.88      atmospheres          (Peng-Robinson calculation)
    Gas volume:   1.00e-01 liters
  Molar volume:   4.46e-02 liters/mole
   P * Vm / RT:  0.55075  (Compressibility Factor Z) 

                                                        Moles in gas
                                            ----------------------------------
Component         log P           P    phi     Initial       Final       Delta

CO2(g)             2.48   3.055e+02  0.244   2.102e+00   2.232e+00   1.305e-01
H2O(g)             0.15   1.417e+00  0.035   9.373e-03   1.035e-02   9.814e-04

-----------------------------Solution composition------------------------------

	Elements           Molality       Moles

	C                 1.568e+00   1.568e+00

----------------------------Description of solution----------------------------

                                       pH  =   3.013      Charge balance
                                       pe  =   4.000      Adjusted to redox equilibrium
      Specific Conductance (µS/cm,  30°C)  = 373
                          Density (g/cm³)  =   1.02267
                               Volume (L)  =   1.04511
                        Viscosity (mPa s)  =   0.89020
                        Activity of water  =   0.973
                 Ionic strength (mol/kgw)  =   1.021e-03
                       Mass of water (kg)  =   9.998e-01
                 Total alkalinity (eq/kg)  =   5.434e-12
                       Total CO2 (mol/kg)  =   1.568e+00
                         Temperature (°C)  =  29.60
                           Pressure (atm)  = 306.88
                  Electrical balance (eq)  =  -5.433e-12
 Percent error, 100*(Cat-|An|)/(Cat+|An|)  =  -0.00
                               Iterations  = 114
                         Gamma iterations  =   4
                      Osmotic coefficient  =   0.97050
                         Density of water  =   1.00911
                                  Total H  = 1.109918e+02
                                  Total O  = 5.863099e+01

----------------------------Distribution of species----------------------------

[...]

----------------------------Distribution of species----------------------------

                                                    MacInnes  MacInnes
                                MacInnes       Log       Log       Log    mole V
   Species          Molality    Activity  Molality  Activity     Gamma   cm³/mol

   H+              8.183e-04   7.815e-04    -3.087    -3.107    -0.020      0.00
   OH-             1.302e-10   1.272e-10    -9.885    -9.896    -0.010     -4.22
   H2O             5.551e+01   9.804e-01     1.744    -0.009     0.000     18.20
C(4)          1.162e+00
   CO2             1.161e+00   1.044e+00     0.065     0.019    -0.046     36.18
   HCO3-           8.183e-04   7.994e-04    -3.087    -3.097    -0.010     25.30
   CO3-2           9.280e-11   8.226e-11   -10.032   -10.085    -0.052     -2.93

------------------------------Saturation indices-------------------------------

  Phase               SI** log IAP   log K(331 K, 140 atm)

  CO2(g)            1.88      0.02   -1.86  CO2	 Pressure 138.7 atm, phi 0.542
  H2O(g)           -0.70     -0.01    0.69  H2O	 Pressure   1.0 atm, phi 0.203

**For a gas, SI = log10(fugacity). Fugacity = pressure * phi / 1 atm.
  For ideal gases, phi = 1.

Reaction step 17.

Using solution 1.	
Using gas phase 1.	
Using temperature 3.	
Using reaction 3.	

Reaction 3.	

	  1.600e-01 moles of the following reaction have been added:

	                 Relative
	Reactant            moles

	CO2                  1.00000

	                 Relative
	Element             moles
	C                    1.00000
	O                    2.00000

-----------------------------------Gas phase-----------------------------------

Total pressure: 155.05      atmospheres          (Peng-Robinson calculation)
    Gas volume:   1.00e-01 liters
  Molar volume:   7.26e-02 liters/mole
   P * Vm / RT:  0.41310  (Compressibility Factor Z) 

                                                        Moles in gas
                                            ----------------------------------
Component         log P           P    phi     Initial       Final       Delta

CO2(g)             2.19   1.539e+02  0.510   1.238e+00   1.368e+00   1.297e-01
H2O(g)             0.06   1.160e+00  0.173   8.735e-03   1.031e-02   1.577e-03

-----------------------------Solution composition------------------------------

	Elements           Molality       Moles

	C                 1.193e+00   1.192e+00

----------------------------Description of solution----------------------------

                                       pH  =   3.099      Charge balance
                                       pe  =   4.000      Adjusted to redox equilibrium
      Specific Conductance (µS/cm,  59°C)  = 423
                          Density (g/cm³)  =   0.99977
                               Volume (L)  =   1.05253
                        Viscosity (mPa s)  =   0.49802
                        Activity of water  =   0.980
                 Ionic strength (mol/kgw)  =   8.345e-04
                       Mass of water (kg)  =   9.998e-01
                 Total alkalinity (eq/kg)  =   5.862e-12
                       Total CO2 (mol/kg)  =   1.193e+00
                         Temperature (°C)  =  58.80
                           Pressure (atm)  = 155.05
                  Electrical balance (eq)  =  -5.860e-12
 Percent error, 100*(Cat-|An|)/(Cat+|An|)  =  -0.00
                               Iterations  =  44
                         Gamma iterations  =   4
                      Osmotic coefficient  =   0.94522
                         Density of water  =   0.99046
                                  Total H  = 1.109919e+02
                                  Total O  = 5.788077e+01

----------------------------Distribution of species----------------------------

                                                    MacInnes  MacInnes
                                MacInnes       Log       Log       Log    mole V
   Species          Molality    Activity  Molality  Activity     Gamma   cm³/mol

   H+              8.345e-04   7.964e-04    -3.079    -3.099    -0.020      0.00
   OH-             1.294e-10   1.263e-10    -9.888    -9.898    -0.010     -4.25
   H2O             5.551e+01   9.799e-01     1.744    -0.009     0.000     18.19
C(4)          1.193e+00
   CO2             1.192e+00   1.068e+00     0.076     0.029    -0.048     36.15
   HCO3-           8.345e-04   8.151e-04    -3.079    -3.089    -0.010     25.36
   CO3-2           9.437e-11   8.359e-11   -10.025   -10.078    -0.053     -2.78

------------------------------Saturation indices-------------------------------

  Phase               SI** log IAP   log K(331 K, 155 atm)

  CO2(g)            1.89      0.03   -1.87  CO2	 Pressure 153.9 atm, phi 0.510
  H2O(g)           -0.70     -0.01    0.69  H2O	 Pressure   1.2 atm, phi 0.173

**For a gas, SI = log10(fugacity). Fugacity = pressure * phi / 1 atm.
  For ideal gases, phi = 1.

Reaction step 18.

Using solution 1.	
Using gas phase 1.	
Using temperature 3.	
Using reaction 3.	

Reaction 3.	

	  1.600e-01 moles of the following reaction have been added:

	                 Relative
	Reactant            moles

	CO2                  1.00000

	                 Relative
	Element             moles
	C                    1.00000
	O                    2.00000

-----------------------------------Gas phase-----------------------------------

Total pressure: 175.02      atmospheres          (Peng-Robinson calculation)
    Gas volume:   1.00e-01 liters
  Molar volume:   6.64e-02 liters/mole
   P * Vm / RT:  0.42666  (Compressibility Factor Z) 

                                                        Moles in gas
                                            ----------------------------------
Component         log P           P    phi     Initial       Final       Delta

CO2(g)             2.24   1.736e+02  0.475   1.368e+00   1.494e+00   1.263e-01
H2O(g)             0.14   1.390e+00  0.146   1.031e-02   1.196e-02   1.650e-03

-----------------------------Solution composition------------------------------

	Elements           Molality       Moles

	C                 1.226e+00   1.226e+00

----------------------------Description of solution----------------------------

                                       pH  =   3.089      Charge balance
                                       pe  =   4.000      Adjusted to redox equilibrium
      Specific Conductance (µS/cm,  59°C)  = 431
                          Density (g/cm³)  =   1.00088
                               Volume (L)  =   1.05282
                        Viscosity (mPa s)  =   0.49909
                        Activity of water  =   0.979
                 Ionic strength (mol/kgw)  =   8.537e-04
                       Mass of water (kg)  =   9.998e-01
                 Total alkalinity (eq/kg)  =   6.184e-12
                       Total CO2 (mol/kg)  =   1.226e+00
                         Temperature (°C)  =  58.80
                           Pressure (atm)  = 175.02
                  Electrical balance (eq)  =  -6.182e-12
 Percent error, 100*(Cat-|An|)/(Cat+|An|)  =  -0.00
                               Iterations  =  48
                         Gamma iterations  =   4
                      Osmotic coefficient  =   0.94367
                         Density of water  =   0.99130
                                  Total H  = 1.109886e+02
                                  Total O  = 5.794643e+01

----------------------------Distribution of species----------------------------

                                                    MacInnes  MacInnes
                                MacInnes       Log       Log       Log    mole V
   Species          Molality    Activity  Molality  Activity     Gamma   cm³/mol

   H+              8.537e-04   8.141e-04    -3.069    -3.089    -0.021      0.00
   OH-             1.286e-10   1.256e-10    -9.891    -9.901    -0.010     -4.29
   H2O             5.551e+01   9.794e-01     1.744    -0.009     0.000     18.17
C(4)          1.226e+00
   CO2             1.225e+00   1.095e+00     0.088     0.039    -0.049     36.12
   HCO3-           8.537e-04   8.338e-04    -3.069    -3.079    -0.010     25.43
   CO3-2           9.641e-11   8.533e-11   -10.016   -10.069    -0.053     -2.60

------------------------------Saturation indices-------------------------------

  Phase               SI** log IAP   log K(331 K, 175 atm)

  CO2(g)            1.92      0.04   -1.88  CO2	 Pressure 173.6 atm, phi 0.475
  H2O(g)           -0.69     -0.01    0.68  H2O	 Pressure   1.4 atm, phi 0.146

**For a gas, SI = log10(fugacity). Fugacity = pressure * phi / 1 atm.
  For ideal gases, phi = 1.

Reaction step 19.

Using solution 1.	
Using gas phase 1.	
Using temperature 3.	
Using reaction 3.	

Reaction 3.	

	  1.600e-01 moles of the following reaction have been added:

	                 Relative
	Reactant            moles

	CO2                  1.00000

	                 Relative
	Element             moles
	C                    1.00000
	O                    2.00000

-----------------------------------Gas phase-----------------------------------

Total pressure: 200.69      atmospheres          (Peng-Robinson calculation)
    Gas volume:   1.00e-01 liters
  Molar volume:   6.13e-02 liters/mole
   P * Vm / RT:  0.45196  (Compressibility Factor Z) 

                                                        Moles in gas
                                            ----------------------------------
Component         log P           P    phi     Initial       Final       Delta

CO2(g)             2.30   1.990e+02  0.441   1.494e+00   1.617e+00   1.226e-01
H2O(g)             0.23   1.680e+00  0.123   1.196e-02   1.365e-02   1.686e-03

-----------------------------Solution composition------------------------------

	Elements           Molality       Moles

	C                 1.264e+00   1.264e+00

----------------------------Description of solution----------------------------

                                       pH  =   3.078      Charge balance
                                       pe  =   4.000      Adjusted to redox equilibrium
      Specific Conductance (µS/cm,  59°C)  = 442
                          Density (g/cm³)  =   1.00226
                               Volume (L)  =   1.05298
                        Viscosity (mPa s)  =   0.50038
                        Activity of water  =   0.979
                 Ionic strength (mol/kgw)  =   8.766e-04
                       Mass of water (kg)  =   9.997e-01
                 Total alkalinity (eq/kg)  =   6.683e-12
                       Total CO2 (mol/kg)  =   1.264e+00
                         Temperature (°C)  =  58.80
                           Pressure (atm)  = 200.69
                  Electrical balance (eq)  =  -6.681e-12
 Percent error, 100*(Cat-|An|)/(Cat+|An|)  =  -0.00
                               Iterations  =  54
                         Gamma iterations  =   4
                      Osmotic coefficient  =   0.94195
                         Density of water  =   0.99239
                                  Total H  = 1.109852e+02
                                  Total O  = 5.801961e+01

----------------------------Distribution of species----------------------------

                                                    MacInnes  MacInnes
                                MacInnes       Log       Log       Log    mole V
   Species          Molality    Activity  Molality  Activity     Gamma   cm³/mol

   H+              8.766e-04   8.353e-04    -3.057    -3.078    -0.021      0.00
   OH-             1.280e-10   1.250e-10    -9.893    -9.903    -0.010     -4.34
   H2O             5.551e+01   9.788e-01     1.744    -0.009     0.000     18.15
C(4)          1.264e+00
   CO2             1.263e+00   1.124e+00     0.101     0.051    -0.050     36.08
   HCO3-           8.766e-04   8.562e-04    -3.057    -3.067    -0.010     25.52
   CO3-2           9.906e-11   8.758e-11   -10.004   -10.058    -0.053     -2.37

------------------------------Saturation indices-------------------------------

  Phase               SI** log IAP   log K(331 K, 201 atm)

  CO2(g)            1.94      0.05   -1.89  CO2	 Pressure 199.0 atm, phi 0.441
  H2O(g)           -0.68     -0.01    0.67  H2O	 Pressure   1.7 atm, phi 0.123

**For a gas, SI = log10(fugacity). Fugacity = pressure * phi / 1 atm.
  For ideal gases, phi = 1.

Reaction step 20.

Using solution 1.	
Using gas phase 1.	
Using temperature 3.	
Using reaction 3.	

Reaction 3.	

	  1.600e-01 moles of the following reaction have been added:

	                 Relative
	Reactant            moles

	CO2                  1.00000

	                 Relative
	Element             moles
	C                    1.00000
	O                    2.00000

-----------------------------------Gas phase-----------------------------------

Total pressure: 233.30      atmospheres          (Peng-Robinson calculation)
    Gas volume:   1.00e-01 liters
  Molar volume:   5.71e-02 liters/mole
   P * Vm / RT:  0.48928  (Compressibility Factor Z) 

                                                        Moles in gas
                                            ----------------------------------
Component         log P           P    phi     Initial       Final       Delta

CO2(g)             2.36   2.313e+02  0.407   1.617e+00   1.735e+00   1.186e-01
H2O(g)             0.31   2.043e+00  0.103   1.365e-02   1.533e-02   1.684e-03

-----------------------------Solution composition------------------------------

	Elements           Molality       Moles

	C                 1.305e+00   1.305e+00

----------------------------Description of solution----------------------------

                                       pH  =   3.065      Charge balance
                                       pe  =   4.000      Adjusted to redox equilibrium
      Specific Conductance (µS/cm,  59°C)  = 455
                          Density (g/cm³)  =   1.00396
                               Volume (L)  =   1.05299
                        Viscosity (mPa s)  =   0.50192
                        Activity of water  =   0.978
                 Ionic strength (mol/kgw)  =   9.039e-04
                       Mass of water (kg)  =   9.997e-01
                 Total alkalinity (eq/kg)  =   7.626e-12
                       Total CO2 (mol/kg)  =   1.305e+00
                         Temperature (°C)  =  58.80
                           Pressure (atm)  = 233.30
                  Electrical balance (eq)  =  -7.624e-12
 Percent error, 100*(Cat-|An|)/(Cat+|An|)  =  -0.00
                               Iterations  =  64
                         Gamma iterations  =   4
                      Osmotic coefficient  =   0.94005
                         Density of water  =   0.99376
                                  Total H  = 1.109819e+02
                                  Total O  = 5.810066e+01

----------------------------Distribution of species----------------------------

                                                    MacInnes  MacInnes
                                MacInnes       Log       Log       Log    mole V
   Species          Molality    Activity  Molality  Activity     Gamma   cm³/mol

   H+              9.039e-04   8.607e-04    -3.044    -3.065    -0.021      0.00
   OH-             1.275e-10   1.246e-10    -9.894    -9.905    -0.010     -4.40
   H2O             5.551e+01   9.781e-01     1.744    -0.010     0.000     18.13
C(4)          1.305e+00
   CO2             1.304e+00   1.157e+00     0.115     0.063    -0.052     36.02
   HCO3-           9.039e-04   8.828e-04    -3.044    -3.054    -0.010     25.63
   CO3-2           1.025e-10   9.049e-11    -9.989   -10.043    -0.054     -2.08

------------------------------Saturation indices-------------------------------

  Phase               SI** log IAP   log K(331 K, 233 atm)

  CO2(g)            1.97      0.06   -1.91  CO2	 Pressure 231.3 atm, phi 0.407
  H2O(g)           -0.68     -0.01    0.67  H2O	 Pressure   2.0 atm, phi 0.103

**For a gas, SI = log10(fugacity). Fugacity = pressure * phi / 1 atm.
  For ideal gases, phi = 1.

Reaction step 21.

Using solution 1.	
Using gas phase 1.	
Using temperature 3.	
Using reaction 3.	

Reaction 3.	

	  1.600e-01 moles of the following reaction have been added:

	                 Relative
	Reactant            moles

	CO2                  1.00000

	                 Relative
	Element             moles
	C                    1.00000
	O                    2.00000

-----------------------------------Gas phase-----------------------------------

Total pressure: 274.16      atmospheres          (Peng-Robinson calculation)
    Gas volume:   1.00e-01 liters
  Molar volume:   5.36e-02 liters/mole
   P * Vm / RT:  0.53913  (Compressibility Factor Z) 

                                                        Moles in gas
                                            ----------------------------------
Component         log P           P    phi     Initial       Final       Delta

CO2(g)             2.43   2.717e+02  0.377   1.735e+00   1.850e+00   1.147e-01
H2O(g)             0.40   2.493e+00  0.087   1.533e-02   1.698e-02   1.645e-03

-----------------------------Solution composition------------------------------

	Elements           Molality       Moles

	C                 1.351e+00   1.350e+00

----------------------------Description of solution----------------------------

                                       pH  =   3.050      Charge balance
                                       pe  =   4.000      Adjusted to redox equilibrium
      Specific Conductance (µS/cm,  59°C)  = 470
                          Density (g/cm³)  =   1.00602
                               Volume (L)  =   1.05278
                        Viscosity (mPa s)  =   0.50375
                        Activity of water  =   0.977
                 Ionic strength (mol/kgw)  =   9.365e-04
                       Mass of water (kg)  =   9.997e-01
                 Total alkalinity (eq/kg)  =   8.339e-12
                       Total CO2 (mol/kg)  =   1.351e+00
                         Temperature (°C)  =  58.80
                           Pressure (atm)  = 274.16
                  Electrical balance (eq)  =  -8.336e-12
 Percent error, 100*(Cat-|An|)/(Cat+|An|)  =  -0.00
                               Iterations  =  74
                         Gamma iterations  =   4
                      Osmotic coefficient  =   0.93796
                         Density of water  =   0.99546
                                  Total H  = 1.109786e+02
                                  Total O  = 5.818961e+01

----------------------------Distribution of species----------------------------

                                                    MacInnes  MacInnes
                                MacInnes       Log       Log       Log    mole V
   Species          Molality    Activity  Molality  Activity     Gamma   cm³/mol

   H+              9.365e-04   8.908e-04    -3.028    -3.050    -0.022      0.00
   OH-             1.274e-10   1.244e-10    -9.895    -9.905    -0.010     -4.47
   H2O             5.551e+01   9.774e-01     1.744    -0.010     0.000     18.10
C(4)          1.351e+00
   CO2             1.350e+00   1.192e+00     0.130     0.076    -0.054     35.96
   HCO3-           9.365e-04   9.146e-04    -3.028    -3.039    -0.010     25.76
   CO3-2           1.068e-10   9.421e-11    -9.971   -10.026    -0.055     -1.73

------------------------------Saturation indices-------------------------------

  Phase               SI** log IAP   log K(331 K, 274 atm)

  CO2(g)            2.01      0.08   -1.93  CO2	 Pressure 271.7 atm, phi 0.377
  H2O(g)           -0.66     -0.01    0.65  H2O	 Pressure   2.5 atm, phi 0.087

**For a gas, SI = log10(fugacity). Fugacity = pressure * phi / 1 atm.
  For ideal gases, phi = 1.

------------------
End of simulation.
------------------

------------------------------------
Reading input data for simulation 5.
------------------------------------

