WARNING: Database file from DATABASE keyword is used; command line argument ignored.
   Input file: HighTPwaterGas
  Output file: HighTPwaterGas.out
Database file: ../database/phreeqc.dat

------------------
Reading data base.
------------------

	SOLUTION_MASTER_SPECIES
	SOLUTION_SPECIES
	PHASES
	GAS_BINARY_PARAMETERS
	EXCHANGE_MASTER_SPECIES
	EXCHANGE_SPECIES
	SURFACE_MASTER_SPECIES
	SURFACE_SPECIES
	MEAN_GAMMAS
	RATES
	END
------------------------------------
Reading input data for simulation 1.
------------------------------------

	DATABASE ../database/phreeqc.dat
	SELECTED_OUTPUT 101
	    file                 HighTPwaterGas_101.sel
	USER_PUNCH 101
	    headings Mu SC
	    start
	10 PUNCH STR_F$(MU, 20, 12)
	20 PUNCH STR_F$(SC, 20, 10)
	    end
	SOLUTION 1
	    temp      65
	    pH        7  charge
	    pe        4
	    redox     pe
	    units     mmol/kgw
	    density   1
	    Cl        10
	    Na        10
	    water    1 # kg
	END
-------------------------------------------
Beginning of initial solution calculations.
-------------------------------------------

Initial solution 1.	

-----------------------------Solution composition------------------------------

	Elements           Molality       Moles

	Cl                1.000e-02   1.000e-02
	Na                1.000e-02   1.000e-02

----------------------------Description of solution----------------------------

                                       pH  =   6.447      Charge balance
                                       pe  =   4.000    
      Specific Conductance (µS/cm,  65°C)  = 2186
                          Density (g/cm³)  =   0.98095
                               Volume (L)  =   1.02002
                        Viscosity (mPa s)  =   0.43371
                        Activity of water  =   1.000
                 Ionic strength (mol/kgw)  =   1.000e-02
                       Mass of water (kg)  =   1.000e+00
                 Total alkalinity (eq/kg)  =  -1.096e-17
                         Temperature (°C)  =  65.00
                  Electrical balance (eq)  =   8.053e-17
 Percent error, 100*(Cat-|An|)/(Cat+|An|)  =   0.00
                               Iterations  =   4
                                  Total H  = 1.110124e+02
                                  Total O  = 5.550622e+01

----------------------------Distribution of species----------------------------

                                               Log       Log       Log    mole V
   Species          Molality    Activity  Molality  Activity     Gamma   cm³/mol

   OH-             3.944e-07   3.520e-07    -6.404    -6.453    -0.049     -3.98
   H+              3.935e-07   3.569e-07    -6.405    -6.447    -0.042      0.00
   H2O             5.551e+01   9.997e-01     1.744    -0.000     0.000     18.37
Cl            1.000e-02
   Cl-             1.000e-02   8.932e-03    -2.000    -2.049    -0.049     18.02
   HCl             8.486e-10   8.570e-10    -9.071    -9.067     0.004     22.17
H(0)          1.267e-24
   H2              6.333e-25   6.348e-25   -24.198   -24.197     0.001     17.06
Na            1.000e-02
   Na+             1.000e-02   8.959e-03    -2.000    -2.048    -0.048     -0.08
O(0)          6.276e-33
   O2              3.138e-33   3.145e-33   -32.503   -32.502     0.001     32.59

------------------------------Saturation indices-------------------------------

  Phase               SI** log IAP   log K(338 K,   1 atm)

  H2(g)           -21.07    -24.20   -3.13  H2
  H2O(g)           -0.61     -0.00    0.61  H2O
  Halite           -5.70     -4.10    1.60  NaCl
  O2(g)           -29.42    -32.50   -3.08  O2

**For a gas, SI = log10(fugacity). Fugacity = pressure * phi / 1 atm.
  For ideal gases, phi = 1.

------------------
End of simulation.
------------------

------------------------------------
Reading input data for simulation 2.
------------------------------------

	USE SOLUTION 1
	REACTION 1
	    CO2(g)     1
	    1 moles in 100 steps
	GAS_PHASE 1
	    fixed_pressure
	    pressure 600
	    volume 1e-9
	    temperature 65
	     CO2(g) 0
	     H2O(g) 0
	USER_GRAPH 1
	-headings RXN Gas_volume pH
	-axis_titles "CO2 addition, mol" "Gas volume, L" "pH"
	10 GRAPH_X RXN
	20 GRAPH_Y GAS_VM * GAS("CO2(g)")
	30 GRAPH_SY -LA("H+")
	END 
-----------------------------------------
Beginning of batch-reaction calculations.
-----------------------------------------

Reaction step 1.

Using solution 1.	
Using gas phase 1.	
Using reaction 1.	

Reaction 1.	

	  1.000e-02 moles of the following reaction have been added:

	                 Relative
	Reactant            moles

	CO2(g)               1.00000

	                 Relative
	Element             moles
	C                    1.00000
	O                    2.00000

----------------Fixed-pressure gas phase 1 dissolved completely----------------

-----------------------------Solution composition------------------------------

	Elements           Molality       Moles

	C                 1.000e-02   1.000e-02
	Cl                1.000e-02   1.000e-02
	Na                1.000e-02   1.000e-02

----------------------------Description of solution----------------------------

                                       pH  =   4.025      Charge balance
                                       pe  =  10.844      Adjusted to redox equilibrium
      Specific Conductance (µS/cm,  65°C)  = 2276
                          Density (g/cm³)  =   1.00584
                               Volume (L)  =   0.99521
                        Viscosity (mPa s)  =   0.44956
                        Activity of water  =   0.999
                 Ionic strength (mol/kgw)  =   1.010e-02
                       Mass of water (kg)  =   1.000e+00
                 Total alkalinity (eq/kg)  =   1.478e-13
                       Total CO2 (mol/kg)  =   1.000e-02
                         Temperature (°C)  =  65.00
                           Pressure (atm)  = 600.00
                  Electrical balance (eq)  =  -1.429e-13
 Percent error, 100*(Cat-|An|)/(Cat+|An|)  =  -0.00
                               Iterations  =  12
                                  Total H  = 1.110124e+02
                                  Total O  = 5.552622e+01

----------------------------Distribution of species----------------------------

                                               Log       Log       Log    mole V
   Species          Molality    Activity  Molality  Activity     Gamma   cm³/mol

   H+              1.037e-04   9.432e-05    -3.984    -4.025    -0.041      0.00
   OH-             2.457e-09   2.199e-09    -8.610    -8.658    -0.048     -5.32
   H2O             5.551e+01   9.995e-01     1.744    -0.000     0.000     17.92
C(-4)         0.000e+00
   CH4             0.000e+00   0.000e+00  -101.971  -101.970     0.001     38.40
C(4)          1.000e-02
   CO2             9.883e-03   9.899e-03    -2.005    -2.004     0.001     35.74
   HCO3-           1.032e-04   9.293e-05    -3.987    -4.032    -0.045     27.50
   (CO2)2          6.350e-06   6.359e-06    -5.197    -5.197     0.001     70.63
   NaHCO3          7.557e-07   7.583e-07    -6.122    -6.120     0.002     23.10
   CO3-2           1.947e-10   1.281e-10    -9.711    -9.892    -0.182      1.03
Cl            1.000e-02
   Cl-             1.000e-02   8.960e-03    -2.000    -2.048    -0.048     18.27
   HCl             2.087e-07   2.108e-07    -6.680    -6.676     0.004     21.73
H(0)          1.267e-33
   H2              6.335e-34   6.350e-34   -33.198   -33.197     0.001     16.72
Na            1.000e-02
   Na+             9.999e-03   8.987e-03    -2.000    -2.046    -0.046      1.45
   NaHCO3          7.557e-07   7.583e-07    -6.122    -6.120     0.002     23.10
O(0)          3.362e-15
   O2              1.681e-15   1.685e-15   -14.774   -14.773     0.001     31.28

------------------------------Saturation indices-------------------------------

  Phase               SI** log IAP   log K(338 K, 600 atm)

  CH4(g)          -98.61   -101.97   -3.36  CH4
  CO2(g)            0.15     -2.00   -2.15  CO2
  H2(g)           -29.91    -33.20   -3.28  H2
  H2O(g)           -0.44     -0.00    0.44  H2O
  Halite           -5.76     -4.09    1.67  NaCl
  O2(g)           -11.40    -14.77   -3.37  O2

**For a gas, SI = log10(fugacity). Fugacity = pressure * phi / 1 atm.
  For ideal gases, phi = 1.

Reaction step 2.

Using solution 1.	
Using gas phase 1.	
Using reaction 1.	

Reaction 1.	

	  2.000e-02 moles of the following reaction have been added:

	                 Relative
	Reactant            moles

	CO2(g)               1.00000

	                 Relative
	Element             moles
	C                    1.00000
	O                    2.00000

----------------Fixed-pressure gas phase 1 dissolved completely----------------

-----------------------------Solution composition------------------------------

	Elements           Molality       Moles

	C                 2.000e-02   2.000e-02
	Cl                1.000e-02   1.000e-02
	Na                1.000e-02   1.000e-02

----------------------------Description of solution----------------------------

                                       pH  =   3.875      Charge balance
                                       pe  =   1.931      Adjusted to redox equilibrium
      Specific Conductance (µS/cm,  65°C)  = 2298
                          Density (g/cm³)  =   1.00593
                               Volume (L)  =   0.99557
                        Viscosity (mPa s)  =   0.44973
                        Activity of water  =   0.999
                 Ionic strength (mol/kgw)  =   1.015e-02
                       Mass of water (kg)  =   1.000e+00
                 Total alkalinity (eq/kg)  =  -2.627e-16
                       Total CO2 (mol/kg)  =   2.000e-02
                         Temperature (°C)  =  65.00
                           Pressure (atm)  = 600.00
                  Electrical balance (eq)  =   3.209e-16
 Percent error, 100*(Cat-|An|)/(Cat+|An|)  =   0.00
                               Iterations  =  13
                                  Total H  = 1.110124e+02
                                  Total O  = 5.554622e+01

----------------------------Distribution of species----------------------------

                                               Log       Log       Log    mole V
   Species          Molality    Activity  Molality  Activity     Gamma   cm³/mol

   H+              1.468e-04   1.335e-04    -3.833    -3.875    -0.041      0.00
   OH-             1.736e-09   1.554e-09    -8.761    -8.809    -0.048     -5.32
   H2O             5.551e+01   9.993e-01     1.744    -0.000     0.000     17.92
C(-4)         6.902e-30
   CH4             6.902e-30   6.919e-30   -29.161   -29.160     0.001     38.40
C(4)          2.000e-02
   CO2             1.980e-02   1.983e-02    -1.703    -1.703     0.001     35.74
   HCO3-           1.460e-04   1.315e-04    -3.836    -3.881    -0.045     27.50
   (CO2)2          2.549e-05   2.553e-05    -4.594    -4.593     0.001     70.63
   NaHCO3          1.069e-06   1.073e-06    -5.971    -5.969     0.002     23.10
   CO3-2           1.948e-10   1.281e-10    -9.710    -9.892    -0.182      1.03
Cl            1.000e-02
   Cl-             1.000e-02   8.958e-03    -2.000    -2.048    -0.048     18.27
   HCl             2.953e-07   2.983e-07    -6.530    -6.525     0.004     21.73
H(0)          1.698e-15
   H2              8.488e-16   8.509e-16   -15.071   -15.070     0.001     16.72
Na            1.000e-02
   Na+             9.999e-03   8.985e-03    -2.000    -2.047    -0.046      1.45
   NaHCO3          1.069e-06   1.073e-06    -5.971    -5.969     0.002     23.10
O(0)          0.000e+00
   O2              0.000e+00   0.000e+00   -51.029   -51.028     0.001     31.28

------------------------------Saturation indices-------------------------------

  Phase               SI** log IAP   log K(338 K, 600 atm)

  CH4(g)          -25.80    -29.16   -3.36  CH4
  CO2(g)            0.45     -1.70   -2.15  CO2
  H2(g)           -11.79    -15.07   -3.28  H2
  H2O(g)           -0.44     -0.00    0.44  H2O
  Halite           -5.76     -4.09    1.67  NaCl
  O2(g)           -47.66    -51.03   -3.37  O2

**For a gas, SI = log10(fugacity). Fugacity = pressure * phi / 1 atm.
  For ideal gases, phi = 1.

Reaction step 3.

Using solution 1.	
Using gas phase 1.	
Using reaction 1.	

Reaction 1.	

	  3.000e-02 moles of the following reaction have been added:

	                 Relative
	Reactant            moles

	CO2(g)               1.00000

	                 Relative
	Element             moles
	C                    1.00000
	O                    2.00000

----------------Fixed-pressure gas phase 1 dissolved completely----------------

-----------------------------Solution composition------------------------------

	Elements           Molality       Moles

	C                 3.000e-02   3.000e-02
	Cl                1.000e-02   1.000e-02
	Na                1.000e-02   1.000e-02

----------------------------Description of solution----------------------------

                                       pH  =   3.787      Charge balance
                                       pe  =  11.040      Adjusted to redox equilibrium
      Specific Conductance (µS/cm,  65°C)  = 2315
                          Density (g/cm³)  =   1.00601
                               Volume (L)  =   0.99592
                        Viscosity (mPa s)  =   0.44988
                        Activity of water  =   0.999
                 Ionic strength (mol/kgw)  =   1.018e-02
                       Mass of water (kg)  =   1.000e+00
                 Total alkalinity (eq/kg)  =  -1.109e-15
                       Total CO2 (mol/kg)  =   3.000e-02
                         Temperature (°C)  =  65.00
                           Pressure (atm)  = 600.00
                  Electrical balance (eq)  =   1.153e-15
 Percent error, 100*(Cat-|An|)/(Cat+|An|)  =   0.00
                               Iterations  =  13
                                  Total H  = 1.110124e+02
                                  Total O  = 5.556622e+01

----------------------------Distribution of species----------------------------

                                               Log       Log       Log    mole V
   Species          Molality    Activity  Molality  Activity     Gamma   cm³/mol

   H+              1.798e-04   1.635e-04    -3.745    -3.787    -0.041      0.00
   OH-             1.417e-09   1.268e-09    -8.849    -8.897    -0.048     -5.32
   H2O             5.551e+01   9.991e-01     1.744    -0.000     0.000     17.92
C(-4)         0.000e+00
   CH4             0.000e+00   0.000e+00  -101.153  -101.152     0.001     38.40
C(4)          3.000e-02
   CO2             2.971e-02   2.975e-02    -1.527    -1.526     0.001     35.74
   HCO3-           1.789e-04   1.611e-04    -3.747    -3.793    -0.045     27.50
   (CO2)2          5.736e-05   5.745e-05    -4.241    -4.241     0.001     70.63
   NaHCO3          1.309e-06   1.314e-06    -5.883    -5.881     0.002     23.10
   CO3-2           1.949e-10   1.281e-10    -9.710    -9.892    -0.182      1.03
Cl            1.000e-02
   Cl-             1.000e-02   8.957e-03    -2.000    -2.048    -0.048     18.27
   HCl             3.616e-07   3.653e-07    -6.442    -6.437     0.004     21.73
H(0)          1.541e-33
   H2              7.705e-34   7.724e-34   -33.113   -33.112     0.001     16.72
Na            1.000e-02
   Na+             9.999e-03   8.983e-03    -2.000    -2.047    -0.047      1.45
   NaHCO3          1.309e-06   1.314e-06    -5.883    -5.881     0.002     23.10
O(0)          2.271e-15
   O2              1.135e-15   1.138e-15   -14.945   -14.944     0.001     31.28

------------------------------Saturation indices-------------------------------

  Phase               SI** log IAP   log K(338 K, 600 atm)

  CH4(g)          -97.79   -101.15   -3.36  CH4
  CO2(g)            0.62     -1.53   -2.15  CO2
  H2(g)           -29.83    -33.11   -3.28  H2
  H2O(g)           -0.44     -0.00    0.44  H2O
  Halite           -5.76     -4.09    1.67  NaCl
  O2(g)           -11.57    -14.94   -3.37  O2

**For a gas, SI = log10(fugacity). Fugacity = pressure * phi / 1 atm.
  For ideal gases, phi = 1.

Reaction step 4.

Using solution 1.	
Using gas phase 1.	
Using reaction 1.	

Reaction 1.	

	  4.000e-02 moles of the following reaction have been added:

	                 Relative
	Reactant            moles

	CO2(g)               1.00000

	                 Relative
	Element             moles
	C                    1.00000
	O                    2.00000

----------------Fixed-pressure gas phase 1 dissolved completely----------------

-----------------------------Solution composition------------------------------

	Elements           Molality       Moles

	C                 4.000e-02   4.000e-02
	Cl                1.000e-02   1.000e-02
	Na                1.000e-02   1.000e-02

----------------------------Description of solution----------------------------

                                       pH  =   3.724      Charge balance
                                       pe  =   1.929      Adjusted to redox equilibrium
      Specific Conductance (µS/cm,  65°C)  = 2329
                          Density (g/cm³)  =   1.00609
                               Volume (L)  =   0.99628
                        Viscosity (mPa s)  =   0.45003
                        Activity of water  =   0.999
                 Ionic strength (mol/kgw)  =   1.021e-02
                       Mass of water (kg)  =   1.000e+00
                 Total alkalinity (eq/kg)  =  -4.431e-16
                       Total CO2 (mol/kg)  =   4.000e-02
                         Temperature (°C)  =  65.00
                           Pressure (atm)  = 600.00
                  Electrical balance (eq)  =   5.153e-16
 Percent error, 100*(Cat-|An|)/(Cat+|An|)  =   0.00
                               Iterations  =  14
                                  Total H  = 1.110124e+02
                                  Total O  = 5.558622e+01

----------------------------Distribution of species----------------------------

                                               Log       Log       Log    mole V
   Species          Molality    Activity  Molality  Activity     Gamma   cm³/mol

   H+              2.076e-04   1.887e-04    -3.683    -3.724    -0.041      0.00
   OH-             1.228e-09   1.099e-09    -8.911    -8.959    -0.048     -5.32
   H2O             5.551e+01   9.990e-01     1.744    -0.000     0.000     17.92
C(-4)         2.294e-28
   CH4             2.294e-28   2.300e-28   -27.639   -27.638     0.001     38.40
C(4)          4.000e-02
   CO2             3.959e-02   3.965e-02    -1.402    -1.402     0.001     35.74
   HCO3-           2.065e-04   1.859e-04    -3.685    -3.731    -0.046     27.51
   (CO2)2          1.019e-04   1.020e-04    -3.992    -3.991     0.001     70.63
   NaHCO3          1.511e-06   1.517e-06    -5.821    -5.819     0.002     23.10
   CO3-2           1.950e-10   1.281e-10    -9.710    -9.892    -0.182      1.03
Cl            1.000e-02
   Cl-             1.000e-02   8.956e-03    -2.000    -2.048    -0.048     18.27
   HCl             4.174e-07   4.216e-07    -6.379    -6.375     0.004     21.73
H(0)          3.427e-15
   H2              1.714e-15   1.718e-15   -14.766   -14.765     0.001     16.72
Na            1.000e-02
   Na+             9.999e-03   8.982e-03    -2.000    -2.047    -0.047      1.45
   NaHCO3          1.511e-06   1.517e-06    -5.821    -5.819     0.002     23.10
O(0)          0.000e+00
   O2              0.000e+00   0.000e+00   -51.639   -51.638     0.001     31.28

------------------------------Saturation indices-------------------------------

  Phase               SI** log IAP   log K(338 K, 600 atm)

  CH4(g)          -24.28    -27.64   -3.36  CH4
  CO2(g)            0.75     -1.40   -2.15  CO2
  H2(g)           -11.48    -14.76   -3.28  H2
  H2O(g)           -0.44     -0.00    0.44  H2O
  Halite           -5.76     -4.09    1.67  NaCl
  O2(g)           -48.27    -51.64   -3.37  O2

**For a gas, SI = log10(fugacity). Fugacity = pressure * phi / 1 atm.
  For ideal gases, phi = 1.

Reaction step 5.

Using solution 1.	
Using gas phase 1.	
Using reaction 1.	

Reaction 1.	

	  5.000e-02 moles of the following reaction have been added:

	                 Relative
	Reactant            moles

	CO2(g)               1.00000

	                 Relative
	Element             moles
	C                    1.00000
	O                    2.00000

----------------Fixed-pressure gas phase 1 dissolved completely----------------

-----------------------------Solution composition------------------------------

	Elements           Molality       Moles

	C                 5.000e-02   5.000e-02
	Cl                1.000e-02   1.000e-02
	Na                1.000e-02   1.000e-02

----------------------------Description of solution----------------------------

                                       pH  =   3.676      Charge balance
                                       pe  =  11.099      Adjusted to redox equilibrium
      Specific Conductance (µS/cm,  65°C)  = 2340
                          Density (g/cm³)  =   1.00617
                               Volume (L)  =   0.99663
                        Viscosity (mPa s)  =   0.45017
                        Activity of water  =   0.999
                 Ionic strength (mol/kgw)  =   1.023e-02
                       Mass of water (kg)  =   1.000e+00
                 Total alkalinity (eq/kg)  =   5.994e-14
                       Total CO2 (mol/kg)  =   5.000e-02
                         Temperature (°C)  =  65.00
                           Pressure (atm)  = 600.00
                  Electrical balance (eq)  =  -5.858e-14
 Percent error, 100*(Cat-|An|)/(Cat+|An|)  =  -0.00
                               Iterations  =  13
                                  Total H  = 1.110124e+02
                                  Total O  = 5.560622e+01

----------------------------Distribution of species----------------------------

                                               Log       Log       Log    mole V
   Species          Molality    Activity  Molality  Activity     Gamma   cm³/mol

   H+              2.320e-04   2.109e-04    -3.635    -3.676    -0.041      0.00
   OH-             1.098e-09   9.829e-10    -8.959    -9.007    -0.048     -5.32
   H2O             5.551e+01   9.988e-01     1.744    -0.001     0.000     17.92
C(-4)         0.000e+00
   CH4             0.000e+00   0.000e+00  -100.517  -100.516     0.001     38.40
C(4)          5.000e-02
   CO2             4.945e-02   4.953e-02    -1.306    -1.305     0.001     35.74
   HCO3-           2.308e-04   2.078e-04    -3.637    -3.682    -0.046     27.51
   (CO2)2          1.590e-04   1.592e-04    -3.799    -3.798     0.001     70.63
   NaHCO3          1.689e-06   1.695e-06    -5.772    -5.771     0.002     23.10
   CO3-2           1.951e-10   1.281e-10    -9.710    -9.892    -0.183      1.03
Cl            1.000e-02
   Cl-             1.000e-02   8.955e-03    -2.000    -2.048    -0.048     18.27
   HCl             4.664e-07   4.711e-07    -6.331    -6.327     0.004     21.73
H(0)          1.956e-33
   H2              9.780e-34   9.804e-34   -33.010   -33.009     0.001     16.72
Na            1.000e-02
   Na+             9.998e-03   8.981e-03    -2.000    -2.047    -0.047      1.45
   NaHCO3          1.689e-06   1.695e-06    -5.772    -5.771     0.002     23.10
O(0)          1.408e-15
   O2              7.042e-16   7.059e-16   -15.152   -15.151     0.001     31.28

------------------------------Saturation indices-------------------------------

  Phase               SI** log IAP   log K(338 K, 600 atm)

  CH4(g)          -97.15   -100.52   -3.36  CH4
  CO2(g)            0.85     -1.31   -2.15  CO2
  H2(g)           -29.72    -33.01   -3.28  H2
  H2O(g)           -0.44     -0.00    0.44  H2O
  Halite           -5.76     -4.09    1.67  NaCl
  O2(g)           -11.78    -15.15   -3.37  O2

**For a gas, SI = log10(fugacity). Fugacity = pressure * phi / 1 atm.
  For ideal gases, phi = 1.

Reaction step 6.

Using solution 1.	
Using gas phase 1.	
Using reaction 1.	

Reaction 1.	

	  6.000e-02 moles of the following reaction have been added:

	                 Relative
	Reactant            moles

	CO2(g)               1.00000

	                 Relative
	Element             moles
	C                    1.00000
	O                    2.00000

----------------Fixed-pressure gas phase 1 dissolved completely----------------

-----------------------------Solution composition------------------------------

	Elements           Molality       Moles

	C                 6.000e-02   6.000e-02
	Cl                1.000e-02   1.000e-02
	Na                1.000e-02   1.000e-02

----------------------------Description of solution----------------------------

                                       pH  =   3.637      Charge balance
                                       pe  =   1.930      Adjusted to redox equilibrium
      Specific Conductance (µS/cm,  65°C)  = 2351
                          Density (g/cm³)  =   1.00625
                               Volume (L)  =   0.99699
                        Viscosity (mPa s)  =   0.45031
                        Activity of water  =   0.999
                 Ionic strength (mol/kgw)  =   1.025e-02
                       Mass of water (kg)  =   1.000e+00
                 Total alkalinity (eq/kg)  =   2.779e-13
                       Total CO2 (mol/kg)  =   6.000e-02
                         Temperature (°C)  =  65.00
                           Pressure (atm)  = 600.00
                  Electrical balance (eq)  =  -2.714e-13
 Percent error, 100*(Cat-|An|)/(Cat+|An|)  =  -0.00
                               Iterations  =  14
                                  Total H  = 1.110124e+02
                                  Total O  = 5.562622e+01

----------------------------Distribution of species----------------------------

                                               Log       Log       Log    mole V
   Species          Molality    Activity  Molality  Activity     Gamma   cm³/mol

   H+              2.540e-04   2.309e-04    -3.595    -3.637    -0.041      0.00
   OH-             1.003e-09   8.976e-10    -8.999    -9.047    -0.048     -5.32
   H2O             5.551e+01   9.986e-01     1.744    -0.001     0.000     17.92
C(-4)         1.673e-27
   CH4             1.673e-27   1.676e-27   -26.777   -26.776     0.001     38.40
C(4)          6.000e-02
   CO2             5.929e-02   5.938e-02    -1.227    -1.226     0.001     35.74
   HCO3-           2.527e-04   2.275e-04    -3.597    -3.643    -0.046     27.51
   (CO2)2          2.285e-04   2.289e-04    -3.641    -3.640     0.001     70.63
   NaHCO3          1.849e-06   1.855e-06    -5.733    -5.732     0.002     23.10
   CO3-2           1.951e-10   1.281e-10    -9.710    -9.893    -0.183      1.04
Cl            1.000e-02
   Cl-             1.000e-02   8.954e-03    -2.000    -2.048    -0.048     18.27
   HCl             5.106e-07   5.157e-07    -6.292    -6.288     0.004     21.73
H(0)          5.090e-15
   H2              2.545e-15   2.551e-15   -14.594   -14.593     0.001     16.72
Na            1.000e-02
   Na+             9.998e-03   8.980e-03    -2.000    -2.047    -0.047      1.45
   NaHCO3          1.849e-06   1.855e-06    -5.733    -5.732     0.002     23.10
O(0)          0.000e+00
   O2              0.000e+00   0.000e+00   -51.983   -51.982     0.001     31.28

------------------------------Saturation indices-------------------------------

  Phase               SI** log IAP   log K(338 K, 600 atm)

  CH4(g)          -23.41    -26.78   -3.36  CH4
  CO2(g)            0.92     -1.23   -2.15  CO2
  H2(g)           -11.31    -14.59   -3.28  H2
  H2O(g)           -0.44     -0.00    0.44  H2O
  Halite           -5.76     -4.09    1.67  NaCl
  O2(g)           -48.61    -51.98   -3.37  O2

**For a gas, SI = log10(fugacity). Fugacity = pressure * phi / 1 atm.
  For ideal gases, phi = 1.

Reaction step 7.

Using solution 1.	
Using gas phase 1.	
Using reaction 1.	

Reaction 1.	

	  7.000e-02 moles of the following reaction have been added:

	                 Relative
	Reactant            moles

	CO2(g)               1.00000

	                 Relative
	Element             moles
	C                    1.00000
	O                    2.00000

----------------Fixed-pressure gas phase 1 dissolved completely----------------

-----------------------------Solution composition------------------------------

	Elements           Molality       Moles

	C                 7.000e-02   7.000e-02
	Cl                1.000e-02   1.000e-02
	Na                1.000e-02   1.000e-02

----------------------------Description of solution----------------------------

                                       pH  =   3.603      Charge balance
                                       pe  =  11.073      Adjusted to redox equilibrium
      Specific Conductance (µS/cm,  65°C)  = 2360
                          Density (g/cm³)  =   1.00633
                               Volume (L)  =   0.99735
                        Viscosity (mPa s)  =   0.45044
                        Activity of water  =   0.998
                 Ionic strength (mol/kgw)  =   1.027e-02
                       Mass of water (kg)  =   1.000e+00
                 Total alkalinity (eq/kg)  =   6.131e-13
                       Total CO2 (mol/kg)  =   7.000e-02
                         Temperature (°C)  =  65.00
                           Pressure (atm)  = 600.00
                  Electrical balance (eq)  =  -5.969e-13
 Percent error, 100*(Cat-|An|)/(Cat+|An|)  =  -0.00
                               Iterations  =  13
                                  Total H  = 1.110124e+02
                                  Total O  = 5.564622e+01

----------------------------Distribution of species----------------------------

                                               Log       Log       Log    mole V
   Species          Molality    Activity  Molality  Activity     Gamma   cm³/mol

   H+              2.743e-04   2.493e-04    -3.562    -3.603    -0.041      0.00
   OH-             9.293e-10   8.313e-10    -9.032    -9.080    -0.048     -5.32
   H2O             5.551e+01   9.985e-01     1.744    -0.001     0.000     17.92
C(-4)         0.000e+00
   CH4             0.000e+00   0.000e+00   -99.586   -99.585     0.001     38.40
C(4)          7.000e-02
   CO2             6.910e-02   6.921e-02    -1.160    -1.160     0.001     35.74
   (CO2)2          3.104e-04   3.109e-04    -3.508    -3.507     0.001     70.63
   HCO3-           2.728e-04   2.456e-04    -3.564    -3.610    -0.046     27.51
   NaHCO3          1.995e-06   2.002e-06    -5.700    -5.698     0.002     23.10
   CO3-2           1.952e-10   1.281e-10    -9.710    -9.893    -0.183      1.04
Cl            1.000e-02
   Cl-             9.999e-03   8.953e-03    -2.000    -2.048    -0.048     18.27
   HCl             5.511e-07   5.567e-07    -6.259    -6.254     0.004     21.73
H(0)          3.074e-33
   H2              1.537e-33   1.541e-33   -32.813   -32.812     0.001     16.72
Na            1.000e-02
   Na+             9.998e-03   8.979e-03    -2.000    -2.047    -0.047      1.45
   NaHCO3          1.995e-06   2.002e-06    -5.700    -5.698     0.002     23.10
O(0)          5.699e-16
   O2              2.849e-16   2.856e-16   -15.545   -15.544     0.001     31.28

------------------------------Saturation indices-------------------------------

  Phase               SI** log IAP   log K(338 K, 600 atm)

  CH4(g)          -96.22    -99.59   -3.36  CH4
  CO2(g)            0.99     -1.16   -2.15  CO2
  H2(g)           -29.53    -32.81   -3.28  H2
  H2O(g)           -0.44     -0.00    0.44  H2O
  Halite           -5.76     -4.09    1.67  NaCl
  O2(g)           -12.17    -15.54   -3.37  O2

**For a gas, SI = log10(fugacity). Fugacity = pressure * phi / 1 atm.
  For ideal gases, phi = 1.

Reaction step 8.

Using solution 1.	
Using gas phase 1.	
Using reaction 1.	

Reaction 1.	

	  8.000e-02 moles of the following reaction have been added:

	                 Relative
	Reactant            moles

	CO2(g)               1.00000

	                 Relative
	Element             moles
	C                    1.00000
	O                    2.00000

----------------Fixed-pressure gas phase 1 dissolved completely----------------

-----------------------------Solution composition------------------------------

	Elements           Molality       Moles

	C                 8.000e-02   8.000e-02
	Cl                1.000e-02   1.000e-02
	Na                1.000e-02   1.000e-02

----------------------------Description of solution----------------------------

                                       pH  =   3.575      Charge balance
                                       pe  =   1.929      Adjusted to redox equilibrium
      Specific Conductance (µS/cm,  65°C)  = 2369
                          Density (g/cm³)  =   1.00641
                               Volume (L)  =   0.99771
                        Viscosity (mPa s)  =   0.45058
                        Activity of water  =   0.998
                 Ionic strength (mol/kgw)  =   1.029e-02
                       Mass of water (kg)  =   1.000e+00
                 Total alkalinity (eq/kg)  =  -2.437e-16
                       Total CO2 (mol/kg)  =   8.000e-02
                         Temperature (°C)  =  65.00
                           Pressure (atm)  = 600.00
                  Electrical balance (eq)  =   3.129e-16
 Percent error, 100*(Cat-|An|)/(Cat+|An|)  =   0.00
                               Iterations  =  15
                                  Total H  = 1.110124e+02
                                  Total O  = 5.566622e+01

----------------------------Distribution of species----------------------------

                                               Log       Log       Log    mole V
   Species          Molality    Activity  Molality  Activity     Gamma   cm³/mol

   H+              2.930e-04   2.663e-04    -3.533    -3.575    -0.041      0.00
   OH-             8.697e-10   7.779e-10    -9.061    -9.109    -0.048     -5.32
   H2O             5.551e+01   9.983e-01     1.744    -0.001     0.000     17.92
C(-4)         7.131e-27
   CH4             7.131e-27   7.148e-27   -26.147   -26.146     0.001     38.40
C(4)          8.000e-02
   CO2             7.890e-02   7.902e-02    -1.103    -1.102     0.001     35.74
   (CO2)2          4.046e-04   4.053e-04    -3.393    -3.392     0.001     70.63
   HCO3-           2.915e-04   2.624e-04    -3.535    -3.581    -0.046     27.51
   NaHCO3          2.132e-06   2.139e-06    -5.671    -5.670     0.002     23.10
   CO3-2           1.953e-10   1.281e-10    -9.709    -9.893    -0.183      1.04
Cl            1.000e-02
   Cl-             9.999e-03   8.952e-03    -2.000    -2.048    -0.048     18.27
   HCl             5.887e-07   5.947e-07    -6.230    -6.226     0.004     21.73
H(0)          6.809e-15
   H2              3.404e-15   3.413e-15   -14.468   -14.467     0.001     16.72
Na            1.000e-02
   Na+             9.998e-03   8.978e-03    -2.000    -2.047    -0.047      1.45
   NaHCO3          2.132e-06   2.139e-06    -5.671    -5.670     0.002     23.10
O(0)          0.000e+00
   O2              0.000e+00   0.000e+00   -52.236   -52.235     0.001     31.28

------------------------------Saturation indices-------------------------------

  Phase               SI** log IAP   log K(338 K, 600 atm)

  CH4(g)          -22.78    -26.15   -3.36  CH4
  CO2(g)            1.05     -1.10   -2.15  CO2
  H2(g)           -11.18    -14.47   -3.28  H2
  H2O(g)           -0.44     -0.00    0.44  H2O
  Halite           -5.76     -4.09    1.67  NaCl
  O2(g)           -48.86    -52.24   -3.37  O2

**For a gas, SI = log10(fugacity). Fugacity = pressure * phi / 1 atm.
  For ideal gases, phi = 1.

Reaction step 9.

Using solution 1.	
Using gas phase 1.	
Using reaction 1.	

Reaction 1.	

	  9.000e-02 moles of the following reaction have been added:

	                 Relative
	Reactant            moles

	CO2(g)               1.00000

	                 Relative
	Element             moles
	C                    1.00000
	O                    2.00000

----------------Fixed-pressure gas phase 1 dissolved completely----------------

-----------------------------Solution composition------------------------------

	Elements           Molality       Moles

	C                 9.000e-02   9.000e-02
	Cl                1.000e-02   1.000e-02
	Na                1.000e-02   1.000e-02

----------------------------Description of solution----------------------------

                                       pH  =   3.549      Charge balance
                                       pe  =   2.483      Adjusted to redox equilibrium
      Specific Conductance (µS/cm,  65°C)  = 2377
                          Density (g/cm³)  =   1.00650
                               Volume (L)  =   0.99806
                        Viscosity (mPa s)  =   0.45071
                        Activity of water  =   0.998
                 Ionic strength (mol/kgw)  =   1.031e-02
                       Mass of water (kg)  =   1.000e+00
                 Total alkalinity (eq/kg)  =  -1.054e-15
                       Total CO2 (mol/kg)  =   9.000e-02
                         Temperature (°C)  =  65.00
                           Pressure (atm)  = 600.00
                  Electrical balance (eq)  =   1.108e-15
 Percent error, 100*(Cat-|An|)/(Cat+|An|)  =   0.00
                               Iterations  =  14
                                  Total H  = 1.110124e+02
                                  Total O  = 5.568622e+01

----------------------------Distribution of species----------------------------

                                               Log       Log       Log    mole V
   Species          Molality    Activity  Molality  Activity     Gamma   cm³/mol

   H+              3.106e-04   2.823e-04    -3.508    -3.549    -0.042      0.00
   OH-             8.204e-10   7.337e-10    -9.086    -9.134    -0.048     -5.32
   H2O             5.551e+01   9.981e-01     1.744    -0.001     0.000     17.92
C(-4)         4.730e-31
   CH4             4.730e-31   4.741e-31   -30.325   -30.324     0.001     38.40
C(4)          9.000e-02
   CO2             8.867e-02   8.881e-02    -1.052    -1.052     0.001     35.74
   (CO2)2          5.111e-04   5.119e-04    -3.292    -3.291     0.001     70.63
   HCO3-           3.090e-04   2.781e-04    -3.510    -3.556    -0.046     27.51
   NaHCO3          2.259e-06   2.267e-06    -5.646    -5.644     0.002     23.10
   CO3-2           1.953e-10   1.281e-10    -9.709    -9.893    -0.183      1.04
Cl            1.000e-02
   Cl-             9.999e-03   8.951e-03    -2.000    -2.048    -0.048     18.27
   HCl             6.240e-07   6.303e-07    -6.205    -6.200     0.004     21.73
H(0)          5.967e-16
   H2              2.984e-16   2.991e-16   -15.525   -15.524     0.001     16.72
Na            1.000e-02
   Na+             9.998e-03   8.977e-03    -2.000    -2.047    -0.047      1.45
   NaHCO3          2.259e-06   2.267e-06    -5.646    -5.644     0.002     23.10
O(0)          0.000e+00
   O2              0.000e+00   0.000e+00   -50.122   -50.121     0.001     31.28

------------------------------Saturation indices-------------------------------

  Phase               SI** log IAP   log K(338 K, 600 atm)

  CH4(g)          -26.96    -30.32   -3.36  CH4
  CO2(g)            1.10     -1.05   -2.15  CO2
  H2(g)           -12.24    -15.52   -3.28  H2
  H2O(g)           -0.44     -0.00    0.44  H2O
  Halite           -5.76     -4.09    1.67  NaCl
  O2(g)           -46.75    -50.12   -3.37  O2

**For a gas, SI = log10(fugacity). Fugacity = pressure * phi / 1 atm.
  For ideal gases, phi = 1.

Reaction step 10.

Using solution 1.	
Using gas phase 1.	
Using reaction 1.	

Reaction 1.	

	  1.000e-01 moles of the following reaction have been added:

	                 Relative
	Reactant            moles

	CO2(g)               1.00000

	                 Relative
	Element             moles
	C                    1.00000
	O                    2.00000

----------------Fixed-pressure gas phase 1 dissolved completely----------------

-----------------------------Solution composition------------------------------

	Elements           Molality       Moles

	C                 1.000e-01   1.000e-01
	Cl                1.000e-02   1.000e-02
	Na                1.000e-02   1.000e-02

----------------------------Description of solution----------------------------

                                       pH  =   3.527      Charge balance
                                       pe  =  11.323      Adjusted to redox equilibrium
      Specific Conductance (µS/cm,  65°C)  = 2384
                          Density (g/cm³)  =   1.00658
                               Volume (L)  =   0.99842
                        Viscosity (mPa s)  =   0.45085
                        Activity of water  =   0.998
                 Ionic strength (mol/kgw)  =   1.032e-02
                       Mass of water (kg)  =   1.000e+00
                 Total alkalinity (eq/kg)  =  -9.717e-16
                       Total CO2 (mol/kg)  =   1.000e-01
                         Temperature (°C)  =  65.00
                           Pressure (atm)  = 600.00
                  Electrical balance (eq)  =   1.025e-15
 Percent error, 100*(Cat-|An|)/(Cat+|An|)  =   0.00
                               Iterations  =  14
                                  Total H  = 1.110124e+02
                                  Total O  = 5.570622e+01

----------------------------Distribution of species----------------------------

                                               Log       Log       Log    mole V
   Species          Molality    Activity  Molality  Activity     Gamma   cm³/mol

   H+              3.273e-04   2.974e-04    -3.485    -3.527    -0.042      0.00
   OH-             7.787e-10   6.964e-10    -9.109    -9.157    -0.048     -5.32
   H2O             5.551e+01   9.980e-01     1.744    -0.001     0.000     17.92
C(-4)         0.000e+00
   CH4             0.000e+00   0.000e+00  -100.818  -100.817     0.001     38.40
C(4)          1.000e-01
   CO2             9.841e-02   9.857e-02    -1.007    -1.006     0.001     35.74
   (CO2)2          6.296e-04   6.306e-04    -3.201    -3.200     0.001     70.63
   HCO3-           3.255e-04   2.930e-04    -3.487    -3.533    -0.046     27.51
   NaHCO3          2.380e-06   2.388e-06    -5.623    -5.622     0.002     23.10
   CO3-2           1.954e-10   1.281e-10    -9.709    -9.893    -0.183      1.04
Cl            1.000e-02
   Cl-             9.999e-03   8.950e-03    -2.000    -2.048    -0.048     18.27
   HCl             6.573e-07   6.640e-07    -6.182    -6.178     0.004     21.73
H(0)          1.384e-33
   H2              6.921e-34   6.938e-34   -33.160   -33.159     0.001     16.72
Na            1.000e-02
   Na+             9.998e-03   8.976e-03    -2.000    -2.047    -0.047      1.45
   NaHCO3          2.380e-06   2.388e-06    -5.623    -5.622     0.002     23.10
O(0)          2.807e-15
   O2              1.404e-15   1.407e-15   -14.853   -14.852     0.001     31.28

------------------------------Saturation indices-------------------------------

  Phase               SI** log IAP   log K(338 K, 600 atm)

  CH4(g)          -97.46   -100.82   -3.36  CH4
  CO2(g)            1.15     -1.01   -2.15  CO2
  H2(g)           -29.87    -33.16   -3.28  H2
  H2O(g)           -0.44     -0.00    0.44  H2O
  Halite           -5.76     -4.10    1.67  NaCl
  O2(g)           -11.48    -14.85   -3.37  O2

**For a gas, SI = log10(fugacity). Fugacity = pressure * phi / 1 atm.
  For ideal gases, phi = 1.

Reaction step 11.

Using solution 1.	
Using gas phase 1.	
Using reaction 1.	

Reaction 1.	

	  1.100e-01 moles of the following reaction have been added:

	                 Relative
	Reactant            moles

	CO2(g)               1.00000

	                 Relative
	Element             moles
	C                    1.00000
	O                    2.00000

----------------Fixed-pressure gas phase 1 dissolved completely----------------

-----------------------------Solution composition------------------------------

	Elements           Molality       Moles

	C                 1.100e-01   1.100e-01
	Cl                1.000e-02   1.000e-02
	Na                1.000e-02   1.000e-02

----------------------------Description of solution----------------------------

                                       pH  =   3.506      Charge balance
                                       pe  =   2.239      Adjusted to redox equilibrium
      Specific Conductance (µS/cm,  65°C)  = 2391
                          Density (g/cm³)  =   1.00666
                               Volume (L)  =   0.99878
                        Viscosity (mPa s)  =   0.45098
                        Activity of water  =   0.998
                 Ionic strength (mol/kgw)  =   1.034e-02
                       Mass of water (kg)  =   1.000e+00
                 Total alkalinity (eq/kg)  =  -3.182e-15
                       Total CO2 (mol/kg)  =   1.100e-01
                         Temperature (°C)  =  65.00
                           Pressure (atm)  = 600.00
                  Electrical balance (eq)  =   3.198e-15
 Percent error, 100*(Cat-|An|)/(Cat+|An|)  =   0.00
                               Iterations  =  14
                                  Total H  = 1.110124e+02
                                  Total O  = 5.572622e+01

----------------------------Distribution of species----------------------------

                                               Log       Log       Log    mole V
   Species          Molality    Activity  Molality  Activity     Gamma   cm³/mol

   H+              3.430e-04   3.117e-04    -3.465    -3.506    -0.042      0.00
   OH-             7.428e-10   6.643e-10    -9.129    -9.178    -0.049     -5.32
   H2O             5.551e+01   9.978e-01     1.744    -0.001     0.000     17.92
C(-4)         1.142e-28
   CH4             1.142e-28   1.145e-28   -27.942   -27.941     0.001     38.40
C(4)          1.100e-01
   CO2             1.081e-01   1.083e-01    -0.966    -0.965     0.001     35.74
   (CO2)2          7.601e-04   7.613e-04    -3.119    -3.118     0.001     70.63
   HCO3-           3.412e-04   3.071e-04    -3.467    -3.513    -0.046     27.51
   NaHCO3          2.494e-06   2.503e-06    -5.603    -5.602     0.002     23.10
   CO3-2           1.954e-10   1.281e-10    -9.709    -9.893    -0.184      1.04
Cl            1.000e-02
   Cl-             9.999e-03   8.950e-03    -2.000    -2.048    -0.048     18.27
   HCl             6.889e-07   6.959e-07    -6.162    -6.157     0.004     21.73
H(0)          2.238e-15
   H2              1.119e-15   1.122e-15   -14.951   -14.950     0.001     16.72
Na            1.000e-02
   Na+             9.998e-03   8.975e-03    -2.000    -2.047    -0.047      1.45
   NaHCO3          2.494e-06   2.503e-06    -5.603    -5.602     0.002     23.10
O(0)          0.000e+00
   O2              0.000e+00   0.000e+00   -51.270   -51.269     0.001     31.28

------------------------------Saturation indices-------------------------------

  Phase               SI** log IAP   log K(338 K, 600 atm)

  CH4(g)          -24.58    -27.94   -3.36  CH4
  CO2(g)            1.19     -0.97   -2.15  CO2
  H2(g)           -11.67    -14.95   -3.28  H2
  H2O(g)           -0.44     -0.00    0.44  H2O
  Halite           -5.76     -4.10    1.67  NaCl
  O2(g)           -47.90    -51.27   -3.37  O2

**For a gas, SI = log10(fugacity). Fugacity = pressure * phi / 1 atm.
  For ideal gases, phi = 1.

Reaction step 12.

Using solution 1.	
Using gas phase 1.	
Using reaction 1.	

Reaction 1.	

	  1.200e-01 moles of the following reaction have been added:

	                 Relative
	Reactant            moles

	CO2(g)               1.00000

	                 Relative
	Element             moles
	C                    1.00000
	O                    2.00000

----------------Fixed-pressure gas phase 1 dissolved completely----------------

-----------------------------Solution composition------------------------------

	Elements           Molality       Moles

	C                 1.200e-01   1.200e-01
	Cl                1.000e-02   1.000e-02
	Na                1.000e-02   1.000e-02

----------------------------Description of solution----------------------------

                                       pH  =   3.488      Charge balance
                                       pe  =  11.325      Adjusted to redox equilibrium
      Specific Conductance (µS/cm,  65°C)  = 2397
                          Density (g/cm³)  =   1.00674
                               Volume (L)  =   0.99913
                        Viscosity (mPa s)  =   0.45111
                        Activity of water  =   0.998
                 Ionic strength (mol/kgw)  =   1.036e-02
                       Mass of water (kg)  =   1.000e+00
                 Total alkalinity (eq/kg)  =  -2.599e-15
                       Total CO2 (mol/kg)  =   1.200e-01
                         Temperature (°C)  =  65.00
                           Pressure (atm)  = 600.00
                  Electrical balance (eq)  =   2.616e-15
 Percent error, 100*(Cat-|An|)/(Cat+|An|)  =   0.00
                               Iterations  =  14
                                  Total H  = 1.110124e+02
                                  Total O  = 5.574622e+01

----------------------------Distribution of species----------------------------

                                               Log       Log       Log    mole V
   Species          Molality    Activity  Molality  Activity     Gamma   cm³/mol

   H+              3.581e-04   3.254e-04    -3.446    -3.488    -0.042      0.00
   OH-             7.116e-10   6.363e-10    -9.148    -9.196    -0.049     -5.32
   H2O             5.551e+01   9.976e-01     1.744    -0.001     0.000     17.92
C(-4)         0.000e+00
   CH4             0.000e+00   0.000e+00  -100.446  -100.444     0.001     38.40
C(4)          1.200e-01
   CO2             1.178e-01   1.180e-01    -0.929    -0.928     0.001     35.74
   (CO2)2          9.026e-04   9.040e-04    -3.044    -3.044     0.001     70.63
   HCO3-           3.562e-04   3.205e-04    -3.448    -3.494    -0.046     27.51
   NaHCO3          2.603e-06   2.613e-06    -5.584    -5.583     0.002     23.10
   CO3-2           1.955e-10   1.281e-10    -9.709    -9.893    -0.184      1.04
Cl            1.000e-02
   Cl-             9.999e-03   8.949e-03    -2.000    -2.048    -0.048     18.27
   HCl             7.190e-07   7.263e-07    -6.143    -6.139     0.004     21.73
H(0)          1.639e-33
   H2              8.197e-34   8.218e-34   -33.086   -33.085     0.001     16.72
Na            1.000e-02
   Na+             9.997e-03   8.975e-03    -2.000    -2.047    -0.047      1.45
   NaHCO3          2.603e-06   2.613e-06    -5.584    -5.583     0.002     23.10
O(0)          2.000e-15
   O2              1.000e-15   1.002e-15   -15.000   -14.999     0.001     31.28

------------------------------Saturation indices-------------------------------

  Phase               SI** log IAP   log K(338 K, 600 atm)

  CH4(g)          -97.08   -100.44   -3.36  CH4
  CO2(g)            1.22     -0.93   -2.15  CO2
  H2(g)           -29.80    -33.09   -3.28  H2
  H2O(g)           -0.44     -0.00    0.44  H2O
  Halite           -5.76     -4.10    1.67  NaCl
  O2(g)           -11.63    -15.00   -3.37  O2

**For a gas, SI = log10(fugacity). Fugacity = pressure * phi / 1 atm.
  For ideal gases, phi = 1.

Reaction step 13.

Using solution 1.	
Using gas phase 1.	
Using reaction 1.	

Reaction 1.	

	  1.300e-01 moles of the following reaction have been added:

	                 Relative
	Reactant            moles

	CO2(g)               1.00000

	                 Relative
	Element             moles
	C                    1.00000
	O                    2.00000

----------------Fixed-pressure gas phase 1 dissolved completely----------------

-----------------------------Solution composition------------------------------

	Elements           Molality       Moles

	C                 1.300e-01   1.300e-01
	Cl                1.000e-02   1.000e-02
	Na                1.000e-02   1.000e-02

----------------------------Description of solution----------------------------

                                       pH  =   3.471      Charge balance
                                       pe  =   2.146      Adjusted to redox equilibrium
      Specific Conductance (µS/cm,  65°C)  = 2403
                          Density (g/cm³)  =   1.00682
                               Volume (L)  =   0.99949
                        Viscosity (mPa s)  =   0.45124
                        Activity of water  =   0.997
                 Ionic strength (mol/kgw)  =   1.037e-02
                       Mass of water (kg)  =   1.000e+00
                 Total alkalinity (eq/kg)  =  -2.181e-15
                       Total CO2 (mol/kg)  =   1.300e-01
                         Temperature (°C)  =  65.00
                           Pressure (atm)  = 600.00
                  Electrical balance (eq)  =   2.202e-15
 Percent error, 100*(Cat-|An|)/(Cat+|An|)  =   0.00
                               Iterations  =  15
                                  Total H  = 1.110124e+02
                                  Total O  = 5.576622e+01

----------------------------Distribution of species----------------------------

                                               Log       Log       Log    mole V
   Species          Molality    Activity  Molality  Activity     Gamma   cm³/mol

   H+              3.725e-04   3.385e-04    -3.429    -3.471    -0.042      0.00
   OH-             6.840e-10   6.116e-10    -9.165    -9.214    -0.049     -5.32
   H2O             5.551e+01   9.975e-01     1.744    -0.001     0.000     17.92
C(-4)         1.446e-27
   CH4             1.446e-27   1.449e-27   -26.840   -26.839     0.001     38.40
C(4)          1.300e-01
   CO2             1.275e-01   1.277e-01    -0.894    -0.894     0.001     35.74
   (CO2)2          1.057e-03   1.059e-03    -2.976    -2.975     0.001     70.63
   HCO3-           3.705e-04   3.334e-04    -3.431    -3.477    -0.046     27.51
   NaHCO3          2.708e-06   2.717e-06    -5.567    -5.566     0.002     23.10
   CO3-2           1.955e-10   1.281e-10    -9.709    -9.893    -0.184      1.04
Cl            1.000e-02
   Cl-             9.999e-03   8.949e-03    -2.000    -2.048    -0.048     18.27
   HCl             7.478e-07   7.555e-07    -6.126    -6.122     0.004     21.73
H(0)          4.050e-15
   H2              2.025e-15   2.030e-15   -14.694   -14.692     0.001     16.72
Na            1.000e-02
   Na+             9.997e-03   8.974e-03    -2.000    -2.047    -0.047      1.45
   NaHCO3          2.708e-06   2.717e-06    -5.567    -5.566     0.002     23.10
O(0)          0.000e+00
   O2              0.000e+00   0.000e+00   -51.786   -51.785     0.001     31.28

------------------------------Saturation indices-------------------------------

  Phase               SI** log IAP   log K(338 K, 600 atm)

  CH4(g)          -23.48    -26.84   -3.36  CH4
  CO2(g)            1.26     -0.89   -2.15  CO2
  H2(g)           -11.41    -14.69   -3.28  H2
  H2O(g)           -0.44     -0.00    0.44  H2O
  Halite           -5.76     -4.10    1.67  NaCl
  O2(g)           -48.41    -51.78   -3.37  O2

**For a gas, SI = log10(fugacity). Fugacity = pressure * phi / 1 atm.
  For ideal gases, phi = 1.

Reaction step 14.

Using solution 1.	
Using gas phase 1.	
Using reaction 1.	

Reaction 1.	

	  1.400e-01 moles of the following reaction have been added:

	                 Relative
	Reactant            moles

	CO2(g)               1.00000

	                 Relative
	Element             moles
	C                    1.00000
	O                    2.00000

----------------Fixed-pressure gas phase 1 dissolved completely----------------

-----------------------------Solution composition------------------------------

	Elements           Molality       Moles

	C                 1.400e-01   1.400e-01
	Cl                1.000e-02   1.000e-02
	Na                1.000e-02   1.000e-02

----------------------------Description of solution----------------------------

                                       pH  =   3.455      Charge balance
                                       pe  =  11.297      Adjusted to redox equilibrium
      Specific Conductance (µS/cm,  65°C)  = 2409
                          Density (g/cm³)  =   1.00690
                               Volume (L)  =   0.99985
                        Viscosity (mPa s)  =   0.45138
                        Activity of water  =   0.997
                 Ionic strength (mol/kgw)  =   1.038e-02
                       Mass of water (kg)  =   1.000e+00
                 Total alkalinity (eq/kg)  =  -4.624e-15
                       Total CO2 (mol/kg)  =   1.400e-01
                         Temperature (°C)  =  65.00
                           Pressure (atm)  = 600.00
                  Electrical balance (eq)  =   4.610e-15
 Percent error, 100*(Cat-|An|)/(Cat+|An|)  =   0.00
                               Iterations  =  14
                                  Total H  = 1.110124e+02
                                  Total O  = 5.578622e+01

----------------------------Distribution of species----------------------------

                                               Log       Log       Log    mole V
   Species          Molality    Activity  Molality  Activity     Gamma   cm³/mol

   H+              3.863e-04   3.510e-04    -3.413    -3.455    -0.042      0.00
   OH-             6.595e-10   5.897e-10    -9.181    -9.229    -0.049     -5.32
   H2O             5.551e+01   9.973e-01     1.744    -0.001     0.000     17.92
C(-4)         0.000e+00
   CH4             0.000e+00   0.000e+00   -99.887   -99.886     0.001     38.40
C(4)          1.400e-01
   CO2             1.372e-01   1.374e-01    -0.863    -0.862     0.001     35.74
   (CO2)2          1.223e-03   1.225e-03    -2.913    -2.912     0.001     70.63
   HCO3-           3.843e-04   3.458e-04    -3.415    -3.461    -0.046     27.51
   NaHCO3          2.808e-06   2.818e-06    -5.552    -5.550     0.002     23.10
   CO3-2           1.956e-10   1.281e-10    -9.709    -9.893    -0.184      1.04
Cl            1.000e-02
   Cl-             9.999e-03   8.948e-03    -2.000    -2.048    -0.048     18.27
   HCl             7.755e-07   7.834e-07    -6.110    -6.106     0.004     21.73
H(0)          2.177e-33
   H2              1.088e-33   1.091e-33   -32.963   -32.962     0.001     16.72
Na            1.000e-02
   Na+             9.997e-03   8.973e-03    -2.000    -2.047    -0.047      1.45
   NaHCO3          2.808e-06   2.818e-06    -5.552    -5.550     0.002     23.10
O(0)          1.133e-15
   O2              5.667e-16   5.681e-16   -15.247   -15.246     0.001     31.28

------------------------------Saturation indices-------------------------------

  Phase               SI** log IAP   log K(338 K, 600 atm)

  CH4(g)          -96.52    -99.89   -3.36  CH4
  CO2(g)            1.29     -0.86   -2.15  CO2
  H2(g)           -29.68    -32.96   -3.28  H2
  H2O(g)           -0.44     -0.00    0.44  H2O
  Halite           -5.76     -4.10    1.67  NaCl
  O2(g)           -11.87    -15.25   -3.37  O2

**For a gas, SI = log10(fugacity). Fugacity = pressure * phi / 1 atm.
  For ideal gases, phi = 1.

Reaction step 15.

Using solution 1.	
Using gas phase 1.	
Using reaction 1.	

Reaction 1.	

	  1.500e-01 moles of the following reaction have been added:

	                 Relative
	Reactant            moles

	CO2(g)               1.00000

	                 Relative
	Element             moles
	C                    1.00000
	O                    2.00000

----------------Fixed-pressure gas phase 1 dissolved completely----------------

-----------------------------Solution composition------------------------------

	Elements           Molality       Moles

	C                 1.500e-01   1.500e-01
	Cl                1.000e-02   1.000e-02
	Na                1.000e-02   1.000e-02

----------------------------Description of solution----------------------------

                                       pH  =   3.440      Charge balance
                                       pe  =   2.110      Adjusted to redox equilibrium
      Specific Conductance (µS/cm,  65°C)  = 2414
                          Density (g/cm³)  =   1.00698
                               Volume (L)  =   1.00020
                        Viscosity (mPa s)  =   0.45151
                        Activity of water  =   0.997
                 Ionic strength (mol/kgw)  =   1.040e-02
                       Mass of water (kg)  =   1.000e+00
                 Total alkalinity (eq/kg)  =  -1.157e-14
                       Total CO2 (mol/kg)  =   1.500e-01
                         Temperature (°C)  =  65.00
                           Pressure (atm)  = 600.00
                  Electrical balance (eq)  =   1.141e-14
 Percent error, 100*(Cat-|An|)/(Cat+|An|)  =   0.00
                               Iterations  =  15
                                  Total H  = 1.110124e+02
                                  Total O  = 5.580622e+01

----------------------------Distribution of species----------------------------

                                               Log       Log       Log    mole V
   Species          Molality    Activity  Molality  Activity     Gamma   cm³/mol

   H+              3.996e-04   3.631e-04    -3.398    -3.440    -0.042      0.00
   OH-             6.375e-10   5.699e-10    -9.196    -9.244    -0.049     -5.32
   H2O             5.551e+01   9.971e-01     1.744    -0.001     0.000     17.92
C(-4)         5.721e-27
   CH4             5.721e-27   5.735e-27   -26.243   -26.241     0.001     38.40
C(4)          1.500e-01
   CO2             1.468e-01   1.470e-01    -0.833    -0.833     0.001     35.74
   (CO2)2          1.401e-03   1.403e-03    -2.854    -2.853     0.001     70.63
   HCO3-           3.975e-04   3.577e-04    -3.401    -3.447    -0.046     27.51
   NaHCO3          2.904e-06   2.915e-06    -5.537    -5.535     0.002     23.10
   CO3-2           1.956e-10   1.281e-10    -9.709    -9.893    -0.184      1.04
Cl            1.000e-02
   Cl-             9.999e-03   8.947e-03    -2.000    -2.048    -0.048     18.27
   HCl             8.021e-07   8.103e-07    -6.096    -6.091     0.004     21.73
H(0)          5.514e-15
   H2              2.757e-15   2.764e-15   -14.560   -14.558     0.001     16.72
Na            1.000e-02
   Na+             9.997e-03   8.973e-03    -2.000    -2.047    -0.047      1.45
   NaHCO3          2.904e-06   2.915e-06    -5.537    -5.535     0.002     23.10
O(0)          0.000e+00
   O2              0.000e+00   0.000e+00   -52.054   -52.053     0.001     31.28

------------------------------Saturation indices-------------------------------

  Phase               SI** log IAP   log K(338 K, 600 atm)

  CH4(g)          -22.88    -26.24   -3.36  CH4
  CO2(g)            1.32     -0.83   -2.15  CO2
  H2(g)           -11.27    -14.56   -3.28  H2
  H2O(g)           -0.44     -0.00    0.44  H2O
  Halite           -5.76     -4.10    1.67  NaCl
  O2(g)           -48.68    -52.05   -3.37  O2

**For a gas, SI = log10(fugacity). Fugacity = pressure * phi / 1 atm.
  For ideal gases, phi = 1.

Reaction step 16.

Using solution 1.	
Using gas phase 1.	
Using reaction 1.	

Reaction 1.	

	  1.600e-01 moles of the following reaction have been added:

	                 Relative
	Reactant            moles

	CO2(g)               1.00000

	                 Relative
	Element             moles
	C                    1.00000
	O                    2.00000

----------------Fixed-pressure gas phase 1 dissolved completely----------------

-----------------------------Solution composition------------------------------

	Elements           Molality       Moles

	C                 1.600e-01   1.600e-01
	Cl                1.000e-02   1.000e-02
	Na                1.000e-02   1.000e-02

----------------------------Description of solution----------------------------

                                       pH  =   3.426      Charge balance
                                       pe  =  11.175      Adjusted to redox equilibrium
      Specific Conductance (µS/cm,  65°C)  = 2419
                          Density (g/cm³)  =   1.00706
                               Volume (L)  =   1.00056
                        Viscosity (mPa s)  =   0.45164
                        Activity of water  =   0.997
                 Ionic strength (mol/kgw)  =   1.041e-02
                       Mass of water (kg)  =   1.000e+00
                 Total alkalinity (eq/kg)  =  -9.775e-15
                       Total CO2 (mol/kg)  =   1.600e-01
                         Temperature (°C)  =  65.00
                           Pressure (atm)  = 600.00
                  Electrical balance (eq)  =   9.657e-15
 Percent error, 100*(Cat-|An|)/(Cat+|An|)  =   0.00
                               Iterations  =  14
                                  Total H  = 1.110124e+02
                                  Total O  = 5.582622e+01

----------------------------Distribution of species----------------------------

                                               Log       Log       Log    mole V
   Species          Molality    Activity  Molality  Activity     Gamma   cm³/mol

   H+              4.125e-04   3.748e-04    -3.385    -3.426    -0.042      0.00
   OH-             6.176e-10   5.521e-10    -9.209    -9.258    -0.049     -5.32
   H2O             5.551e+01   9.970e-01     1.744    -0.001     0.000     17.92
C(-4)         0.000e+00
   CH4             0.000e+00   0.000e+00   -98.630   -98.629     0.001     38.40
C(4)          1.600e-01
   CO2             1.564e-01   1.567e-01    -0.806    -0.805     0.001     35.74
   (CO2)2          1.590e-03   1.593e-03    -2.799    -2.798     0.001     70.63
   HCO3-           4.103e-04   3.692e-04    -3.387    -3.433    -0.046     27.51
   NaHCO3          2.997e-06   3.008e-06    -5.523    -5.522     0.002     23.10
   CO3-2           1.956e-10   1.281e-10    -9.709    -9.893    -0.184      1.04
Cl            1.000e-02
   Cl-             9.999e-03   8.947e-03    -2.000    -2.048    -0.048     18.27
   HCl             8.278e-07   8.363e-07    -6.082    -6.078     0.004     21.73
H(0)          4.342e-33
   H2              2.171e-33   2.177e-33   -32.663   -32.662     0.001     16.72
Na            1.000e-02
   Na+             9.997e-03   8.972e-03    -2.000    -2.047    -0.047      1.45
   NaHCO3          2.997e-06   3.008e-06    -5.523    -5.522     0.002     23.10
O(0)          2.847e-16
   O2              1.423e-16   1.427e-16   -15.847   -15.846     0.001     31.28

------------------------------Saturation indices-------------------------------

  Phase               SI** log IAP   log K(338 K, 600 atm)

  CH4(g)          -95.27    -98.63   -3.36  CH4
  CO2(g)            1.35     -0.81   -2.15  CO2
  H2(g)           -29.38    -32.66   -3.28  H2
  H2O(g)           -0.44     -0.00    0.44  H2O
  Halite           -5.76     -4.10    1.67  NaCl
  O2(g)           -12.47    -15.85   -3.37  O2

**For a gas, SI = log10(fugacity). Fugacity = pressure * phi / 1 atm.
  For ideal gases, phi = 1.

Reaction step 17.

Using solution 1.	
Using gas phase 1.	
Using reaction 1.	

Reaction 1.	

	  1.700e-01 moles of the following reaction have been added:

	                 Relative
	Reactant            moles

	CO2(g)               1.00000

	                 Relative
	Element             moles
	C                    1.00000
	O                    2.00000

----------------Fixed-pressure gas phase 1 dissolved completely----------------

-----------------------------Solution composition------------------------------

	Elements           Molality       Moles

	C                 1.700e-01   1.700e-01
	Cl                1.000e-02   1.000e-02
	Na                1.000e-02   1.000e-02

----------------------------Description of solution----------------------------

                                       pH  =   3.413      Charge balance
                                       pe  =  11.456      Adjusted to redox equilibrium
      Specific Conductance (µS/cm,  65°C)  = 2424
                          Density (g/cm³)  =   1.00714
                               Volume (L)  =   1.00092
                        Viscosity (mPa s)  =   0.45177
                        Activity of water  =   0.997
                 Ionic strength (mol/kgw)  =   1.042e-02
                       Mass of water (kg)  =   1.000e+00
                 Total alkalinity (eq/kg)  =  -2.406e-14
                       Total CO2 (mol/kg)  =   1.700e-01
                         Temperature (°C)  =  65.00
                           Pressure (atm)  = 600.00
                  Electrical balance (eq)  =   2.366e-14
 Percent error, 100*(Cat-|An|)/(Cat+|An|)  =   0.00
                               Iterations  =  14
                                  Total H  = 1.110124e+02
                                  Total O  = 5.584622e+01

----------------------------Distribution of species----------------------------

                                               Log       Log       Log    mole V
   Species          Molality    Activity  Molality  Activity     Gamma   cm³/mol

   H+              4.249e-04   3.860e-04    -3.372    -3.413    -0.042      0.00
   OH-             5.995e-10   5.359e-10    -9.222    -9.271    -0.049     -5.32
   H2O             5.551e+01   9.968e-01     1.744    -0.001     0.000     17.92
C(-4)         0.000e+00
   CH4             0.000e+00   0.000e+00  -100.750  -100.749     0.001     38.40
C(4)          1.700e-01
   CO2             1.660e-01   1.663e-01    -0.780    -0.779     0.001     35.74
   (CO2)2          1.791e-03   1.794e-03    -2.747    -2.746     0.001     70.63
   HCO3-           4.227e-04   3.803e-04    -3.374    -3.420    -0.046     27.51
   NaHCO3          3.087e-06   3.099e-06    -5.510    -5.509     0.002     23.10
   CO3-2           1.957e-10   1.281e-10    -9.708    -9.893    -0.184      1.04
Cl            1.000e-02
   Cl-             9.999e-03   8.946e-03    -2.000    -2.048    -0.048     18.27
   HCl             8.527e-07   8.614e-07    -6.069    -6.065     0.004     21.73
H(0)          1.262e-33
   H2              6.311e-34   6.327e-34   -33.200   -33.199     0.001     16.72
Na            1.000e-02
   Na+             9.997e-03   8.972e-03    -2.000    -2.047    -0.047      1.45
   NaHCO3          3.087e-06   3.099e-06    -5.510    -5.509     0.002     23.10
O(0)          3.368e-15
   O2              1.684e-15   1.688e-15   -14.774   -14.773     0.001     31.28

------------------------------Saturation indices-------------------------------

  Phase               SI** log IAP   log K(338 K, 600 atm)

  CH4(g)          -97.39   -100.75   -3.36  CH4
  CO2(g)            1.37     -0.78   -2.15  CO2
  H2(g)           -29.91    -33.20   -3.28  H2
  H2O(g)           -0.44     -0.00    0.44  H2O
  Halite           -5.76     -4.10    1.67  NaCl
  O2(g)           -11.40    -14.77   -3.37  O2

**For a gas, SI = log10(fugacity). Fugacity = pressure * phi / 1 atm.
  For ideal gases, phi = 1.

Reaction step 18.

Using solution 1.	
Using gas phase 1.	
Using reaction 1.	

Reaction 1.	

	  1.800e-01 moles of the following reaction have been added:

	                 Relative
	Reactant            moles

	CO2(g)               1.00000

	                 Relative
	Element             moles
	C                    1.00000
	O                    2.00000

----------------Fixed-pressure gas phase 1 dissolved completely----------------

-----------------------------Solution composition------------------------------

	Elements           Molality       Moles

	C                 1.800e-01   1.800e-01
	Cl                1.000e-02   1.000e-02
	Na                1.000e-02   1.000e-02

----------------------------Description of solution----------------------------

                                       pH  =   3.401      Charge balance
                                       pe  =   2.516      Adjusted to redox equilibrium
      Specific Conductance (µS/cm,  65°C)  = 2428
                          Density (g/cm³)  =   1.00722
                               Volume (L)  =   1.00127
                        Viscosity (mPa s)  =   0.45190
                        Activity of water  =   0.997
                 Ionic strength (mol/kgw)  =   1.043e-02
                       Mass of water (kg)  =   1.000e+00
                 Total alkalinity (eq/kg)  =  -1.221e-15
                       Total CO2 (mol/kg)  =   1.800e-01
                         Temperature (°C)  =  65.00
                           Pressure (atm)  = 600.00
                  Electrical balance (eq)  =   1.280e-15
 Percent error, 100*(Cat-|An|)/(Cat+|An|)  =   0.00
                               Iterations  =  15
                                  Total H  = 1.110124e+02
                                  Total O  = 5.586622e+01

----------------------------Distribution of species----------------------------

                                               Log       Log       Log    mole V
   Species          Molality    Activity  Molality  Activity     Gamma   cm³/mol

   H+              4.370e-04   3.970e-04    -3.360    -3.401    -0.042      0.00
   OH-             5.829e-10   5.210e-10    -9.234    -9.283    -0.049     -5.32
   H2O             5.551e+01   9.966e-01     1.744    -0.001     0.000     17.92
C(-4)         7.804e-30
   CH4             7.804e-30   7.823e-30   -29.108   -29.107     0.001     38.40
C(4)          1.800e-01
   CO2             1.756e-01   1.758e-01    -0.756    -0.755     0.001     35.74
   (CO2)2          2.003e-03   2.007e-03    -2.698    -2.698     0.001     70.63
   HCO3-           4.347e-04   3.910e-04    -3.362    -3.408    -0.046     27.51
   NaHCO3          3.175e-06   3.186e-06    -5.498    -5.497     0.002     23.10
   CO3-2           1.957e-10   1.281e-10    -9.708    -9.893    -0.184      1.04
Cl            1.000e-02
   Cl-             9.999e-03   8.946e-03    -2.000    -2.048    -0.048     18.27
   HCl             8.768e-07   8.858e-07    -6.057    -6.053     0.004     21.73
H(0)          1.013e-15
   H2              5.065e-16   5.078e-16   -15.295   -15.294     0.001     16.72
Na            1.000e-02
   Na+             9.997e-03   8.971e-03    -2.000    -2.047    -0.047      1.45
   NaHCO3          3.175e-06   3.186e-06    -5.498    -5.497     0.002     23.10
O(0)          0.000e+00
   O2              0.000e+00   0.000e+00   -50.583   -50.582     0.001     31.28

------------------------------Saturation indices-------------------------------

  Phase               SI** log IAP   log K(338 K, 600 atm)

  CH4(g)          -25.75    -29.11   -3.36  CH4
  CO2(g)            1.40     -0.75   -2.15  CO2
  H2(g)           -12.01    -15.29   -3.28  H2
  H2O(g)           -0.44     -0.00    0.44  H2O
  Halite           -5.76     -4.10    1.67  NaCl
  O2(g)           -47.21    -50.58   -3.37  O2

**For a gas, SI = log10(fugacity). Fugacity = pressure * phi / 1 atm.
  For ideal gases, phi = 1.

Reaction step 19.

Using solution 1.	
Using gas phase 1.	
Using reaction 1.	

Reaction 1.	

	  1.900e-01 moles of the following reaction have been added:

	                 Relative
	Reactant            moles

	CO2(g)               1.00000

	                 Relative
	Element             moles
	C                    1.00000
	O                    2.00000

----------------Fixed-pressure gas phase 1 dissolved completely----------------

-----------------------------Solution composition------------------------------

	Elements           Molality       Moles

	C                 1.900e-01   1.900e-01
	Cl                1.000e-02   1.000e-02
	Na                1.000e-02   1.000e-02

----------------------------Description of solution----------------------------

                                       pH  =   3.390      Charge balance
                                       pe  =  11.453      Adjusted to redox equilibrium
      Specific Conductance (µS/cm,  65°C)  = 2433
                          Density (g/cm³)  =   1.00730
                               Volume (L)  =   1.00163
                        Viscosity (mPa s)  =   0.45203
                        Activity of water  =   0.996
                 Ionic strength (mol/kgw)  =   1.045e-02
                       Mass of water (kg)  =   1.000e+00
                 Total alkalinity (eq/kg)  =  -3.574e-14
                       Total CO2 (mol/kg)  =   1.900e-01
                         Temperature (°C)  =  65.00
                           Pressure (atm)  = 600.00
                  Electrical balance (eq)  =   3.514e-14
 Percent error, 100*(Cat-|An|)/(Cat+|An|)  =   0.00
                               Iterations  =  14
                                  Total H  = 1.110124e+02
                                  Total O  = 5.588622e+01

----------------------------Distribution of species----------------------------

                                               Log       Log       Log    mole V
   Species          Molality    Activity  Molality  Activity     Gamma   cm³/mol

   H+              4.487e-04   4.076e-04    -3.348    -3.390    -0.042      0.00
   OH-             5.677e-10   5.074e-10    -9.246    -9.295    -0.049     -5.32
   H2O             5.551e+01   9.965e-01     1.744    -0.002     0.000     17.92
C(-4)         0.000e+00
   CH4             0.000e+00   0.000e+00  -100.490  -100.489     0.001     38.40
C(4)          1.900e-01
   CO2             1.851e-01   1.854e-01    -0.733    -0.732     0.001     35.74
   (CO2)2          2.227e-03   2.231e-03    -2.652    -2.652     0.001     70.63
   HCO3-           4.463e-04   4.015e-04    -3.350    -3.396    -0.046     27.51
   NaHCO3          3.259e-06   3.271e-06    -5.487    -5.485     0.002     23.10
   CO3-2           1.958e-10   1.281e-10    -9.708    -9.893    -0.184      1.04
Cl            1.000e-02
   Cl-             9.999e-03   8.945e-03    -2.000    -2.048    -0.048     18.27
   HCl             9.002e-07   9.094e-07    -6.046    -6.041     0.004     21.73
H(0)          1.426e-33
   H2              7.132e-34   7.150e-34   -33.147   -33.146     0.001     16.72
Na            1.000e-02
   Na+             9.997e-03   8.971e-03    -2.000    -2.047    -0.047      1.45
   NaHCO3          3.259e-06   3.271e-06    -5.487    -5.485     0.002     23.10
O(0)          2.635e-15
   O2              1.318e-15   1.321e-15   -14.880   -14.879     0.001     31.28

------------------------------Saturation indices-------------------------------

  Phase               SI** log IAP   log K(338 K, 600 atm)

  CH4(g)          -97.13   -100.49   -3.36  CH4
  CO2(g)            1.42     -0.73   -2.15  CO2
  H2(g)           -29.86    -33.15   -3.28  H2
  H2O(g)           -0.44     -0.00    0.44  H2O
  Halite           -5.76     -4.10    1.67  NaCl
  O2(g)           -11.51    -14.88   -3.37  O2

**For a gas, SI = log10(fugacity). Fugacity = pressure * phi / 1 atm.
  For ideal gases, phi = 1.

Reaction step 20.

Using solution 1.	
Using gas phase 1.	
Using reaction 1.	

Reaction 1.	

	  2.000e-01 moles of the following reaction have been added:

	                 Relative
	Reactant            moles

	CO2(g)               1.00000

	                 Relative
	Element             moles
	C                    1.00000
	O                    2.00000

----------------Fixed-pressure gas phase 1 dissolved completely----------------

-----------------------------Solution composition------------------------------

	Elements           Molality       Moles

	C                 2.000e-01   2.000e-01
	Cl                1.000e-02   1.000e-02
	Na                1.000e-02   1.000e-02

----------------------------Description of solution----------------------------

                                       pH  =   3.379      Charge balance
[...]
  O2(g)           -48.33    -51.71   -3.37  O2

**For a gas, SI = log10(fugacity). Fugacity = pressure * phi / 1 atm.
  For ideal gases, phi = 1.

Reaction step 96.

Using solution 1.	
Using gas phase 1.	
Using reaction 1.	

Reaction 1.	

	  9.600e-01 moles of the following reaction have been added:

	                 Relative
	Reactant            moles

	CO2(g)               1.00000

	                 Relative
	Element             moles
	C                    1.00000
	O                    2.00000

----------------Fixed-pressure gas phase 1 dissolved completely----------------

-----------------------------Solution composition------------------------------

	Elements           Molality       Moles

	C                 9.600e-01   9.600e-01
	Cl                1.000e-02   1.000e-02
	Na                1.000e-02   1.000e-02

----------------------------Description of solution----------------------------

                                       pH  =   3.058      Charge balance
                                       pe  =  11.759      Adjusted to redox equilibrium
      Specific Conductance (µS/cm,  65°C)  = 2545
                          Density (g/cm³)  =   1.01335
                               Volume (L)  =   1.02910
                        Viscosity (mPa s)  =   0.46196
                        Activity of water  =   0.984
                 Ionic strength (mol/kgw)  =   1.096e-02
                       Mass of water (kg)  =   1.000e+00
                 Total alkalinity (eq/kg)  =  -6.979e-14
                       Total CO2 (mol/kg)  =   9.600e-01
                         Temperature (°C)  =  65.00
                           Pressure (atm)  = 600.00
                  Electrical balance (eq)  =   6.849e-14
 Percent error, 100*(Cat-|An|)/(Cat+|An|)  =   0.00
                               Iterations  =  15
                                  Total H  = 1.110124e+02
                                  Total O  = 5.742622e+01

----------------------------Distribution of species----------------------------

                                               Log       Log       Log    mole V
   Species          Molality    Activity  Molality  Activity     Gamma   cm³/mol

   H+              9.643e-04   8.744e-04    -3.016    -3.058    -0.043      0.00
   OH-             2.619e-10   2.336e-10    -9.582    -9.632    -0.050     -5.31
   H2O             5.551e+01   9.841e-01     1.744    -0.007     0.000     17.92
C(-4)         0.000e+00
   CH4             0.000e+00   0.000e+00   -99.604   -99.603     0.001     38.40
C(4)          9.600e-01
   CO2             8.624e-01   8.638e-01    -0.064    -0.064     0.001     35.74
   (CO2)2          4.835e-02   4.843e-02    -1.316    -1.315     0.001     70.63
   HCO3-           9.593e-04   8.610e-04    -3.018    -3.065    -0.047     27.52
   NaHCO3          6.972e-06   6.998e-06    -5.157    -5.155     0.002     23.10
   CO3-2           1.974e-10   1.280e-10    -9.705    -9.893    -0.188      1.05
Cl            1.000e-02
   Cl-             9.998e-03   8.923e-03    -2.000    -2.049    -0.049     18.27
   HCl             1.926e-06   1.946e-06    -5.715    -5.711     0.005     21.73
H(0)          1.607e-33
   H2              8.033e-34   8.054e-34   -33.095   -33.094     0.001     16.72
Na            1.000e-02
   Na+             9.993e-03   8.947e-03    -2.000    -2.048    -0.048      1.45
   NaHCO3          6.972e-06   6.998e-06    -5.157    -5.155     0.002     23.10
O(0)          2.026e-15
   O2              1.013e-15   1.015e-15   -14.994   -14.993     0.001     31.28

------------------------------Saturation indices-------------------------------

  Phase               SI** log IAP   log K(338 K, 600 atm)

  CH4(g)          -96.24    -99.60   -3.36  CH4
  CO2(g)            2.09     -0.06   -2.15  CO2
  H2(g)           -29.81    -33.09   -3.28  H2
  H2O(g)           -0.45     -0.01    0.44  H2O
  Halite           -5.77     -4.10    1.67  NaCl
  O2(g)           -11.62    -14.99   -3.37  O2

**For a gas, SI = log10(fugacity). Fugacity = pressure * phi / 1 atm.
  For ideal gases, phi = 1.

Reaction step 97.

Using solution 1.	
Using gas phase 1.	
Using reaction 1.	

Reaction 1.	

	  9.700e-01 moles of the following reaction have been added:

	                 Relative
	Reactant            moles

	CO2(g)               1.00000

	                 Relative
	Element             moles
	C                    1.00000
	O                    2.00000

----------------Fixed-pressure gas phase 1 dissolved completely----------------

-----------------------------Solution composition------------------------------

	Elements           Molality       Moles

	C                 9.700e-01   9.700e-01
	Cl                1.000e-02   1.000e-02
	Na                1.000e-02   1.000e-02

----------------------------Description of solution----------------------------

                                       pH  =   3.056      Charge balance
                                       pe  =   2.524      Adjusted to redox equilibrium
      Specific Conductance (µS/cm,  65°C)  = 2545
                          Density (g/cm³)  =   1.01343
                               Volume (L)  =   1.02945
                        Viscosity (mPa s)  =   0.46209
                        Activity of water  =   0.984
                 Ionic strength (mol/kgw)  =   1.096e-02
                       Mass of water (kg)  =   1.000e+00
                 Total alkalinity (eq/kg)  =  -3.812e-13
                       Total CO2 (mol/kg)  =   9.700e-01
                         Temperature (°C)  =  65.00
                           Pressure (atm)  = 600.00
                  Electrical balance (eq)  =   3.741e-13
 Percent error, 100*(Cat-|An|)/(Cat+|An|)  =   0.00
                               Iterations  =  17
                                  Total H  = 1.110124e+02
                                  Total O  = 5.744622e+01

----------------------------Distribution of species----------------------------

                                               Log       Log       Log    mole V
   Species          Molality    Activity  Molality  Activity     Gamma   cm³/mol

   H+              9.688e-04   8.785e-04    -3.014    -3.056    -0.043      0.00
   OH-             2.607e-10   2.324e-10    -9.584    -9.634    -0.050     -5.31
   H2O             5.551e+01   9.840e-01     1.744    -0.007     0.000     17.92
C(-4)         1.968e-26
   CH4             1.968e-26   1.973e-26   -25.706   -25.705     0.001     38.40
C(4)          9.700e-01
   CO2             8.705e-01   8.720e-01    -0.060    -0.059     0.001     35.74
   (CO2)2          4.927e-02   4.935e-02    -1.307    -1.307     0.001     70.63
   HCO3-           9.637e-04   8.650e-04    -3.016    -3.063    -0.047     27.52
   NaHCO3          7.004e-06   7.031e-06    -5.155    -5.153     0.002     23.10
   CO3-2           1.974e-10   1.280e-10    -9.705    -9.893    -0.188      1.05
Cl            1.000e-02
   Cl-             9.998e-03   8.923e-03    -2.000    -2.049    -0.049     18.27
   HCl             1.934e-06   1.955e-06    -5.713    -5.709     0.005     21.73
H(0)          4.780e-15
   H2              2.390e-15   2.396e-15   -14.622   -14.620     0.001     16.72
Na            1.000e-02
   Na+             9.993e-03   8.947e-03    -2.000    -2.048    -0.048      1.45
   NaHCO3          7.004e-06   7.031e-06    -5.155    -5.153     0.002     23.10
O(0)          0.000e+00
   O2              0.000e+00   0.000e+00   -51.942   -51.941     0.001     31.28

------------------------------Saturation indices-------------------------------

  Phase               SI** log IAP   log K(338 K, 600 atm)

  CH4(g)          -22.34    -25.70   -3.36  CH4
  CO2(g)            2.09     -0.06   -2.15  CO2
  H2(g)           -11.34    -14.62   -3.28  H2
  H2O(g)           -0.45     -0.01    0.44  H2O
  Halite           -5.77     -4.10    1.67  NaCl
  O2(g)           -48.57    -51.94   -3.37  O2

**For a gas, SI = log10(fugacity). Fugacity = pressure * phi / 1 atm.
  For ideal gases, phi = 1.

Reaction step 98.

Using solution 1.	
Using gas phase 1.	
Using reaction 1.	

Reaction 1.	

	  9.800e-01 moles of the following reaction have been added:

	                 Relative
	Reactant            moles

	CO2(g)               1.00000

	                 Relative
	Element             moles
	C                    1.00000
	O                    2.00000

----------------Fixed-pressure gas phase 1 dissolved completely----------------

-----------------------------Solution composition------------------------------

	Elements           Molality       Moles

	C                 9.800e-01   9.800e-01
	Cl                1.000e-02   1.000e-02
	Na                1.000e-02   1.000e-02

----------------------------Description of solution----------------------------

                                       pH  =   3.054      Charge balance
                                       pe  =  11.698      Adjusted to redox equilibrium
      Specific Conductance (µS/cm,  65°C)  = 2546
                          Density (g/cm³)  =   1.01350
                               Volume (L)  =   1.02981
                        Viscosity (mPa s)  =   0.46222
                        Activity of water  =   0.984
                 Ionic strength (mol/kgw)  =   1.097e-02
                       Mass of water (kg)  =   1.000e+00
                 Total alkalinity (eq/kg)  =  -4.620e-14
                       Total CO2 (mol/kg)  =   9.800e-01
                         Temperature (°C)  =  65.00
                           Pressure (atm)  = 600.00
                  Electrical balance (eq)  =   4.535e-14
 Percent error, 100*(Cat-|An|)/(Cat+|An|)  =   0.00
                               Iterations  =  17
                                  Total H  = 1.110124e+02
                                  Total O  = 5.746622e+01

----------------------------Distribution of species----------------------------

                                               Log       Log       Log    mole V
   Species          Molality    Activity  Molality  Activity     Gamma   cm³/mol

   H+              9.733e-04   8.825e-04    -3.012    -3.054    -0.043      0.00
   OH-             2.595e-10   2.313e-10    -9.586    -9.636    -0.050     -5.31
   H2O             5.551e+01   9.838e-01     1.744    -0.007     0.000     17.92
C(-4)         0.000e+00
   CH4             0.000e+00   0.000e+00   -99.079   -99.078     0.001     38.40
C(4)          9.800e-01
   CO2             8.787e-01   8.801e-01    -0.056    -0.055     0.001     35.74
   (CO2)2          5.019e-02   5.027e-02    -1.299    -1.299     0.001     70.63
   HCO3-           9.682e-04   8.690e-04    -3.014    -3.061    -0.047     27.52
   NaHCO3          7.036e-06   7.063e-06    -5.153    -5.151     0.002     23.10
   CO3-2           1.974e-10   1.280e-10    -9.705    -9.893    -0.188      1.05
Cl            1.000e-02
   Cl-             9.998e-03   8.923e-03    -2.000    -2.050    -0.049     18.27
   HCl             1.943e-06   1.964e-06    -5.711    -5.707     0.005     21.73
H(0)          2.163e-33
   H2              1.082e-33   1.085e-33   -32.966   -32.965     0.001     16.72
Na            1.000e-02
   Na+             9.993e-03   8.947e-03    -2.000    -2.048    -0.048      1.45
   NaHCO3          7.036e-06   7.063e-06    -5.153    -5.151     0.002     23.10
O(0)          1.116e-15
   O2              5.582e-16   5.596e-16   -15.253   -15.252     0.001     31.28

------------------------------Saturation indices-------------------------------

  Phase               SI** log IAP   log K(338 K, 600 atm)

  CH4(g)          -95.72    -99.08   -3.36  CH4
  CO2(g)            2.10     -0.06   -2.15  CO2
  H2(g)           -29.68    -32.96   -3.28  H2
  H2O(g)           -0.45     -0.01    0.44  H2O
  Halite           -5.77     -4.10    1.67  NaCl
  O2(g)           -11.88    -15.25   -3.37  O2

**For a gas, SI = log10(fugacity). Fugacity = pressure * phi / 1 atm.
  For ideal gases, phi = 1.

Reaction step 99.

Using solution 1.	
Using gas phase 1.	
Using reaction 1.	

Reaction 1.	

	  9.900e-01 moles of the following reaction have been added:

	                 Relative
	Reactant            moles

	CO2(g)               1.00000

	                 Relative
	Element             moles
	C                    1.00000
	O                    2.00000

----------------Fixed-pressure gas phase 1 dissolved completely----------------

-----------------------------Solution composition------------------------------

	Elements           Molality       Moles

	C                 9.900e-01   9.900e-01
	Cl                1.000e-02   1.000e-02
	Na                1.000e-02   1.000e-02

----------------------------Description of solution----------------------------

                                       pH  =   3.052      Charge balance
                                       pe  =   2.459      Adjusted to redox equilibrium
      Specific Conductance (µS/cm,  65°C)  = 2546
                          Density (g/cm³)  =   1.01358
                               Volume (L)  =   1.03016
                        Viscosity (mPa s)  =   0.46235
                        Activity of water  =   0.984
                 Ionic strength (mol/kgw)  =   1.097e-02
                       Mass of water (kg)  =   1.000e+00
                 Total alkalinity (eq/kg)  =  -3.001e-13
                       Total CO2 (mol/kg)  =   9.900e-01
                         Temperature (°C)  =  65.00
                           Pressure (atm)  = 600.00
                  Electrical balance (eq)  =   2.945e-13
 Percent error, 100*(Cat-|An|)/(Cat+|An|)  =   0.00
                               Iterations  =  16
                                  Total H  = 1.110124e+02
                                  Total O  = 5.748622e+01

----------------------------Distribution of species----------------------------

                                               Log       Log       Log    mole V
   Species          Molality    Activity  Molality  Activity     Gamma   cm³/mol

   H+              9.777e-04   8.865e-04    -3.010    -3.052    -0.043      0.00
   OH-             2.583e-10   2.303e-10    -9.588    -9.638    -0.050     -5.31
   H2O             5.551e+01   9.837e-01     1.744    -0.007     0.000     17.92
C(-4)         7.146e-26
   CH4             7.146e-26   7.164e-26   -25.146   -25.145     0.001     38.40
C(4)          9.900e-01
   CO2             8.868e-01   8.883e-01    -0.052    -0.051     0.001     35.74
   (CO2)2          5.112e-02   5.121e-02    -1.291    -1.291     0.001     70.63
   HCO3-           9.726e-04   8.729e-04    -3.012    -3.059    -0.047     27.52
   NaHCO3          7.068e-06   7.095e-06    -5.151    -5.149     0.002     23.10
   CO3-2           1.974e-10   1.280e-10    -9.705    -9.893    -0.188      1.05
Cl            1.000e-02
   Cl-             9.998e-03   8.923e-03    -2.000    -2.050    -0.049     18.27
   HCl             1.952e-06   1.973e-06    -5.710    -5.705     0.005     21.73
H(0)          6.566e-15
   H2              3.283e-15   3.292e-15   -14.484   -14.483     0.001     16.72
Na            1.000e-02
   Na+             9.993e-03   8.947e-03    -2.000    -2.048    -0.048      1.45
   NaHCO3          7.068e-06   7.095e-06    -5.151    -5.149     0.002     23.10
O(0)          0.000e+00
   O2              0.000e+00   0.000e+00   -52.218   -52.217     0.001     31.28

------------------------------Saturation indices-------------------------------

  Phase               SI** log IAP   log K(338 K, 600 atm)

  CH4(g)          -21.78    -25.14   -3.36  CH4
  CO2(g)            2.10     -0.05   -2.15  CO2
  H2(g)           -11.20    -14.48   -3.28  H2
  H2O(g)           -0.45     -0.01    0.44  H2O
  Halite           -5.77     -4.10    1.67  NaCl
  O2(g)           -48.85    -52.22   -3.37  O2

**For a gas, SI = log10(fugacity). Fugacity = pressure * phi / 1 atm.
  For ideal gases, phi = 1.

Reaction step 100.

Using solution 1.	
Using gas phase 1.	
Using reaction 1.	

Reaction 1.	

	  1.000e+00 moles of the following reaction have been added:

	                 Relative
	Reactant            moles

	CO2(g)               1.00000

	                 Relative
	Element             moles
	C                    1.00000
	O                    2.00000

----------------Fixed-pressure gas phase 1 dissolved completely----------------

-----------------------------Solution composition------------------------------

	Elements           Molality       Moles

	C                 1.000e+00   1.000e+00
	Cl                1.000e-02   1.000e-02
	Na                1.000e-02   1.000e-02

----------------------------Description of solution----------------------------

                                       pH  =   3.050      Charge balance
                                       pe  =  11.441      Adjusted to redox equilibrium
      Specific Conductance (µS/cm,  65°C)  = 2546
                          Density (g/cm³)  =   1.01366
                               Volume (L)  =   1.03052
                        Viscosity (mPa s)  =   0.46247
                        Activity of water  =   0.984
                 Ionic strength (mol/kgw)  =   1.098e-02
                       Mass of water (kg)  =   1.000e+00
                 Total alkalinity (eq/kg)  =  -1.252e-14
                       Total CO2 (mol/kg)  =   1.000e+00
                         Temperature (°C)  =  65.00
                           Pressure (atm)  = 600.00
                  Electrical balance (eq)  =   1.233e-14
 Percent error, 100*(Cat-|An|)/(Cat+|An|)  =   0.00
                               Iterations  =  18
                                  Total H  = 1.110124e+02
                                  Total O  = 5.750622e+01

----------------------------Distribution of species----------------------------

                                               Log       Log       Log    mole V
   Species          Molality    Activity  Molality  Activity     Gamma   cm³/mol

   H+              9.821e-04   8.905e-04    -3.008    -3.050    -0.043      0.00
   OH-             2.571e-10   2.292e-10    -9.590    -9.640    -0.050     -5.31
   H2O             5.551e+01   9.835e-01     1.744    -0.007     0.000     17.92
C(-4)         0.000e+00
   CH4             0.000e+00   0.000e+00   -96.977   -96.976     0.001     38.40
C(4)          1.000e+00
   CO2             8.949e-01   8.964e-01    -0.048    -0.047     0.001     35.74
   (CO2)2          5.206e-02   5.215e-02    -1.283    -1.283     0.001     70.63
   HCO3-           9.770e-04   8.768e-04    -3.010    -3.057    -0.047     27.52
   NaHCO3          7.099e-06   7.126e-06    -5.149    -5.147     0.002     23.10
   CO3-2           1.974e-10   1.280e-10    -9.705    -9.893    -0.188      1.05
Cl            1.000e-02
   Cl-             9.998e-03   8.922e-03    -2.000    -2.050    -0.049     18.27
   HCl             1.961e-06   1.982e-06    -5.708    -5.703     0.005     21.73
H(0)          7.220e-33
   H2              3.610e-33   3.619e-33   -32.443   -32.441     0.001     16.72
Na            1.000e-02
   Na+             9.993e-03   8.946e-03    -2.000    -2.048    -0.048      1.45
   NaHCO3          7.099e-06   7.126e-06    -5.149    -5.147     0.002     23.10
O(0)          1.002e-16
   O2              5.009e-17   5.022e-17   -16.300   -16.299     0.001     31.28

------------------------------Saturation indices-------------------------------

  Phase               SI** log IAP   log K(338 K, 600 atm)

  CH4(g)          -93.61    -96.98   -3.36  CH4
  CO2(g)            2.10     -0.05   -2.15  CO2
  H2(g)           -29.16    -32.44   -3.28  H2
  H2O(g)           -0.45     -0.01    0.44  H2O
  Halite           -5.77     -4.10    1.67  NaCl
  O2(g)           -12.93    -16.30   -3.37  O2

**For a gas, SI = log10(fugacity). Fugacity = pressure * phi / 1 atm.
  For ideal gases, phi = 1.

------------------
End of simulation.
------------------

------------------------------------
Reading input data for simulation 3.
------------------------------------

