WARNING: Database file from DATABASE keyword is used; command line argument ignored.
   Input file: initial_gas
  Output file: initial_gas.out
Database file: ../database/phreeqc.dat

------------------
Reading data base.
------------------

	SOLUTION_MASTER_SPECIES
	SOLUTION_SPECIES
	PHASES
	GAS_BINARY_PARAMETERS
	EXCHANGE_MASTER_SPECIES
	EXCHANGE_SPECIES
	SURFACE_MASTER_SPECIES
	SURFACE_SPECIES
	MEAN_GAMMAS
	RATES
	END
------------------------------------
Reading input data for simulation 1.
------------------------------------

	database ../database/phreeqc.dat
	SELECTED_OUTPUT 101
	    file                 initial_gas_101.sel
	USER_PUNCH 101
	    headings Mu SC
	    start
	10 PUNCH STR_F$(MU, 20, 12)
	20 PUNCH STR_F$(SC, 20, 10)
	    end
	SOLUTION
	EQUILIBRIUM_PHASES
		CO2(g) 	-1.0
		O2(g)	-1.0
		Calcite
		Dolomite
	SAVE solution 1
	END
-------------------------------------------
Beginning of initial solution calculations.
-------------------------------------------

Initial solution 1.	

-----------------------------Solution composition------------------------------

	Elements           Molality       Moles

	Pure water     

----------------------------Description of solution----------------------------

                                       pH  =   7.000    
                                       pe  =   4.000    
      Specific Conductance (µS/cm,  25°C)  = 0
                          Density (g/cm³)  =   0.99704
                               Volume (L)  =   1.00297
                        Viscosity (mPa s)  =   0.89002
                        Activity of water  =   1.000
                 Ionic strength (mol/kgw)  =   1.007e-07
                       Mass of water (kg)  =   1.000e+00
                 Total alkalinity (eq/kg)  =   1.217e-09
                         Temperature (°C)  =  25.00
                  Electrical balance (eq)  =  -1.217e-09
 Percent error, 100*(Cat-|An|)/(Cat+|An|)  =  -0.60
                               Iterations  =   0
                                  Total H  = 1.110124e+02
                                  Total O  = 5.550622e+01

----------------------------Distribution of species----------------------------

                                               Log       Log       Log    mole V
   Species          Molality    Activity  Molality  Activity     Gamma   cm³/mol

   OH-             1.013e-07   1.012e-07    -6.995    -6.995    -0.000     -4.14
   H+              1.001e-07   1.000e-07    -7.000    -7.000    -0.000      0.00
   H2O             5.551e+01   1.000e+00     1.744     0.000     0.000     18.07
H(0)          1.416e-25
   H2              7.079e-26   7.079e-26   -25.150   -25.150     0.000     14.99
O(0)          0.000e+00
   O2              0.000e+00   0.000e+00   -42.063   -42.063     0.000     30.40

------------------------------Saturation indices-------------------------------

  Phase               SI** log IAP   log K(298 K,   1 atm)

  H2(g)           -22.05    -25.15   -3.10  H2
  H2O(g)           -1.50      0.00    1.50  H2O
  O2(g)           -39.17    -42.06   -2.89  O2

**For a gas, SI = log10(fugacity). Fugacity = pressure * phi / 1 atm.
  For ideal gases, phi = 1.

-----------------------------------------
Beginning of batch-reaction calculations.
-----------------------------------------

Reaction step 1.

Using solution 1.	
Using pure phase assemblage 1.	

-------------------------------Phase assemblage--------------------------------

                                                      Moles in assemblage
Phase               SI  log IAP  log K(T, P)   Initial       Final       Delta

CO2(g)           -1.00    -2.47     -1.47    1.000e+01   9.992e+00  -8.009e-03
Calcite           0.00    -8.45     -8.45    1.000e+01   9.999e+00  -8.603e-04
Dolomite          0.00   -17.08    -17.08    1.000e+01   9.998e+00  -1.883e-03
O2(g)            -1.00    -3.89     -2.89    1.000e+01   1.000e+01  -1.277e-04

-----------------------------Solution composition------------------------------

	Elements           Molality       Moles

	C                 1.264e-02   1.264e-02
	Ca                2.744e-03   2.743e-03
	Mg                1.883e-03   1.883e-03

----------------------------Description of solution----------------------------

                                       pH  =   6.731      Charge balance
                                       pe  =  13.812      Adjusted to redox equilibrium
      Specific Conductance (µS/cm,  25°C)  = 805
                          Density (g/cm³)  =   0.99765
                               Volume (L)  =   1.00314
                        Viscosity (mPa s)  =   0.89492
                        Activity of water  =   1.000
                 Ionic strength (mol/kgw)  =   1.362e-02
                       Mass of water (kg)  =   9.999e-01
                 Total alkalinity (eq/kg)  =   9.254e-03
                       Total CO2 (mol/kg)  =   1.264e-02
                         Temperature (°C)  =  25.00
                  Electrical balance (eq)  =  -1.217e-09
 Percent error, 100*(Cat-|An|)/(Cat+|An|)  =  -0.00
                               Iterations  =  14
                                  Total H  = 1.110124e+02
                                  Total O  = 5.553637e+01

----------------------------Distribution of species----------------------------

                                               Log       Log       Log    mole V
   Species          Molality    Activity  Molality  Activity     Gamma   cm³/mol

   H+              2.058e-07   1.859e-07    -6.686    -6.731    -0.044      0.00
   OH-             6.142e-08   5.443e-08    -7.212    -7.264    -0.052     -4.01
   H2O             5.551e+01   9.997e-01     1.744    -0.000     0.000     18.07
C(-4)         0.000e+00
   CH4             0.000e+00   0.000e+00  -142.420  -142.419     0.001     35.46
C(4)          1.264e-02
   HCO3-           9.110e-03   8.135e-03    -2.040    -2.090    -0.049     24.74
   CO2             3.394e-03   3.401e-03    -2.469    -2.468     0.001     34.79
   MgHCO3+         1.207e-04   1.072e-04    -3.918    -3.970    -0.052      5.54
   CaCO3           5.970e-06   5.989e-06    -5.224    -5.223     0.001    -14.60
   CO3-2           3.232e-06   2.052e-06    -5.491    -5.688    -0.197     -4.27
   MgCO3           2.199e-06   2.206e-06    -5.658    -5.656     0.001    -17.09
   (CO2)2          1.876e-07   1.880e-07    -6.727    -6.726     0.001     68.75
   CaHCO3+         1.385e-09   1.239e-09    -8.859    -8.907    -0.048      9.73
Ca            2.744e-03
   Ca+2            2.738e-03   1.737e-03    -2.563    -2.760    -0.198    -17.88
   CaCO3           5.970e-06   5.989e-06    -5.224    -5.223     0.001    -14.60
   CaOH+           1.745e-09   1.550e-09    -8.758    -8.810    -0.051     (0)  
   CaHCO3+         1.385e-09   1.239e-09    -8.859    -8.907    -0.048      9.73
H(0)          0.000e+00
   H2              0.000e+00   0.000e+00   -44.237   -44.235     0.001     14.99
Mg            1.883e-03
   Mg+2            1.760e-03   1.126e-03    -2.754    -2.948    -0.194    -21.57
   MgHCO3+         1.207e-04   1.072e-04    -3.918    -3.970    -0.052      5.54
   MgCO3           2.199e-06   2.206e-06    -5.658    -5.656     0.001    -17.09
   MgOH+           2.454e-08   2.199e-08    -7.610    -7.658    -0.048     (0)  
O(0)          2.554e-04
   O2              1.277e-04   1.281e-04    -3.894    -3.892     0.001     30.40

------------------------------Saturation indices-------------------------------

  Phase               SI** log IAP   log K(298 K,   1 atm)

  Aragonite        -0.11     -8.45   -8.34  CaCO3
  Calcite           0.00     -8.45   -8.45  CaCO3
  CH4(g)         -139.62   -142.42   -2.80  CH4
  CO2(g)           -1.00     -2.47   -1.47  CO2	 Pressure   0.1 atm, phi 0.999
  Dolomite          0.00    -17.08  -17.08  CaMg(CO3)2
  H2(g)           -41.14    -44.24   -3.10  H2
  H2O(g)           -1.50     -0.00    1.50  H2O
  O2(g)            -1.00     -3.89   -2.89  O2	 Pressure   0.1 atm, phi 1.000

**For a gas, SI = log10(fugacity). Fugacity = pressure * phi / 1 atm.
  For ideal gases, phi = 1.

------------------
End of simulation.
------------------

------------------------------------
Reading input data for simulation 2.
------------------------------------

	GAS_PHASE
		equilibrium 1
		fixed_volume
		temperature 25
		pressure 10
		volume   10
		CO2(g)	0
		CH4(g)	0
		O2(g)	0
	END
--------------------------------------------------------
Beginning of initial gas_phase-composition calculations.
--------------------------------------------------------

Gas_Phase 1.	

-----------------------------------Gas phase-----------------------------------

Total pressure:  0.20      atmospheres 
    Gas volume:   1.00e+01 liters
  Molar volume:   1.22e+02 liters/mole

                                                        Moles in gas
                                            ----------------------------------
Component                log P           P     Initial       Final       Delta

CH4(g)                  -99.99   0.000e+00   0.000e+00   0.000e+00   0.000e+00
CO2(g)                   -1.00   9.994e-02   4.085e-02   4.085e-02   0.000e+00
O2(g)                    -1.00   9.999e-02   4.087e-02   4.087e-02   0.000e+00


While initializing gas phase composition by equilibrating:
     Found definitions of gas critical temperature and pressure.
     Going to use Peng-Robinson in subsequent calculations.
------------------
End of simulation.
------------------

------------------------------------
Reading input data for simulation 3.
------------------------------------

