WARNING: Database file from DATABASE keyword is used; command line argument ignored.
   Input file: jgb2col
  Output file: jgb2col.out
Database file: ../database/phreeqc.dat

------------------
Reading data base.
------------------

	SOLUTION_MASTER_SPECIES
	SOLUTION_SPECIES
	PHASES
	GAS_BINARY_PARAMETERS
	EXCHANGE_MASTER_SPECIES
	EXCHANGE_SPECIES
	SURFACE_MASTER_SPECIES
	SURFACE_SPECIES
	MEAN_GAMMAS
	RATES
	END
------------------------------------
Reading input data for simulation 1.
------------------------------------

	DATABASE ../database/phreeqc.dat
	SELECTED_OUTPUT 101
	    file                 jgb2col_101.sel
	USER_PUNCH 101
	    headings Mu SC
	    start
	10 PUNCH STR_F$(MU, 20, 12)
	20 PUNCH STR_F$(SC, 20, 10)
	    end
	knobs
		logfile
	PRINT
		status false
	SELECTED_OUTPUT
	        file comp3.flat
	        totals
	                Ca Fe
	        molalities
	                Ca+2
	        pure_phases
	                Calcite
	        si
	                Calcite
	SOLUTION 0
		ph	3.3
		temp	25
		units mmol/l
		Ca	11.6
		Mg	15.8
		Na	9.4
		K	0.2
	        Si      1.86
		Fe	52.4
		Mn	1.34
		Al	10.5
	        Cd      5.2e-6  mol/l
		Cu	2.4
	        Sr      1.5e-5  mol/l
		Zn	0.33
		S(6)	100 	charge
		Cl	9.5
	        F       1.6  
		C(4)	0.1	CO2(g)  -3.5
	SOLUTION 1-5
		ph	7.19
		temp	25
		units mmol/l
		O(0)	0.22
		Ca	1.2	charge
		Mg	0.37
		Na	0.96
		K	0.03
	        Si      0.40      
		Fe	3.5e-7	mol/l
		Mn	1.0e-7	mol/l
		Al	1.8e-6  mol/l
	        Cd      4.5e-9  mol/l
		Cu	1.5e-7	mol/l
	        Sr      2.7e-6  mol/l
		Zn	2.5e-7	mol/l
		S(6)	0.7
		Cl	0.48
	        F       1.58e-5 mol/l
		Alkalinity	2.3
	PURE_PHASES 1-5
		Calcite		0.0	0.075
	USE PURE_PHASES none
	ADVECTION
		cells		5
		shifts		25
		print_frequency	5
	END
-------------------------------------------
Beginning of initial solution calculations.
-------------------------------------------

Initial solution 0.	

-----------------------------Solution composition------------------------------

	Elements           Molality       Moles

	Al                1.066e-02   1.066e-02
	C(4)              1.044e-05   1.044e-05  Equilibrium with CO2(g)
	Ca                1.177e-02   1.177e-02
	Cd                5.277e-06   5.277e-06
	Cl                9.641e-03   9.641e-03
	Cu                2.436e-03   2.436e-03
	F                 1.624e-03   1.624e-03
	Fe                5.318e-02   5.318e-02
	K                 2.030e-04   2.030e-04
	Mg                1.603e-02   1.603e-02
	Mn                1.360e-03   1.360e-03
	Na                9.540e-03   9.540e-03
	S(6)              1.010e-01   1.010e-01  Charge balance
	Si                1.888e-03   1.888e-03
	Sr                1.522e-05   1.522e-05
	Zn                3.349e-04   3.349e-04

----------------------------Description of solution----------------------------

                                       pH  =   3.300    
                                       pe  =   4.000    
      Specific Conductance (µS/cm,  25°C)  = 11111
                          Density (g/cm³)  =   1.01098
                               Volume (L)  =   1.00384
                        Viscosity (mPa s)  =   0.91391
                        Activity of water  =   0.997
                 Ionic strength (mol/kgw)  =   2.155e-01
                       Mass of water (kg)  =   1.000e+00
                 Total alkalinity (eq/kg)  =  -1.676e-03
                       Total CO2 (mol/kg)  =   1.044e-05
                         Temperature (°C)  =  25.00
                  Electrical balance (eq)  =  -1.107e-14
 Percent error, 100*(Cat-|An|)/(Cat+|An|)  =  -0.00
                               Iterations  =   9
                                  Total H  = 1.110217e+02
                                  Total O  = 5.591786e+01

----------------------------Distribution of species----------------------------

                                               Log       Log       Log    mole V
   Species          Molality    Activity  Molality  Activity     Gamma   cm³/mol

   H+              6.307e-04   5.012e-04    -3.200    -3.300    -0.100      0.00
   OH-             2.873e-11   2.014e-11   -10.542   -10.696    -0.154     -3.47
   H2O             5.551e+01   9.972e-01     1.744    -0.001     0.000     18.07
Al            1.066e-02
   AlSO4+          5.820e-03   4.212e-03    -2.235    -2.376    -0.140     (0)  
   Al(SO4)2-       2.578e-03   1.866e-03    -2.589    -2.729    -0.140     (0)  
   AlF+2           1.375e-03   4.159e-04    -2.862    -3.381    -0.519     (0)  
   Al+3            7.521e-04   9.507e-05    -3.124    -4.022    -0.898    -40.79
   AlF2+           1.230e-04   9.119e-05    -3.910    -4.040    -0.130     (0)  
   AlOH+2          6.213e-06   1.879e-06    -5.207    -5.726    -0.519    -26.91
   AlHSO4+2        6.126e-07   1.872e-07    -6.213    -6.728    -0.515     (0)  
   AlF3            4.779e-07   5.022e-07    -6.321    -6.299     0.022     (0)  
   Al(OH)2+        3.951e-08   2.930e-08    -7.403    -7.533    -0.130     (0)  
   AlF4-           1.209e-10   8.747e-11    -9.918   -10.058    -0.140     (0)  
   Al(OH)3         8.173e-12   8.589e-12   -11.088   -11.066     0.022     (0)  
   Al(OH)4-        4.450e-14   3.221e-14   -13.352   -13.492    -0.140     (0)  
C(4)          1.044e-05
   CO2             1.041e-05   1.076e-05    -4.982    -4.968     0.014     34.79
   HCO3-           1.279e-08   9.522e-09    -7.893    -8.021    -0.128     26.02
   FeHCO3+         1.235e-08   9.179e-09    -7.908    -8.037    -0.129     (0)  
   CuHCO3+         2.271e-09   1.688e-09    -8.644    -8.773    -0.129     (0)  
   MnHCO3+         4.449e-10   3.265e-10    -9.352    -9.486    -0.134     (0)  
   MgHCO3+         3.707e-10   2.642e-10    -9.431    -9.578    -0.147      5.72
   ZnHCO3+         9.128e-11   6.786e-11   -10.040   -10.168    -0.129     (0)  
   NaHCO3          2.758e-11   2.973e-11   -10.559   -10.527     0.033     17.66
   (CO2)2          1.822e-12   1.882e-12   -11.740   -11.725     0.014     68.75
   CuCO3           1.611e-12   1.693e-12   -11.793   -11.771     0.022     (0)  
   SrHCO3+         5.193e-13   3.851e-13   -12.285   -12.414    -0.130     (0)  
   KHCO3           4.896e-13   5.145e-13   -12.310   -12.289     0.022     21.42
   CdHCO3+         4.676e-13   3.476e-13   -12.330   -12.459    -0.129     (0)  
   FeCO3           1.961e-13   2.060e-13   -12.708   -12.686     0.022     (0)  
   MnCO3           2.591e-14   2.723e-14   -13.586   -13.565     0.022     (0)  
   ZnCO3           9.577e-15   1.006e-14   -14.019   -13.997     0.022     (0)  
   CaCO3           3.289e-15   3.456e-15   -14.483   -14.461     0.022    -14.60
   CO3-2           2.946e-15   8.910e-16   -14.531   -15.050    -0.519     -2.52
   CaHCO3+         2.563e-15   1.928e-15   -14.591   -14.715    -0.124      9.88
   MgCO3           1.919e-15   2.016e-15   -14.717   -14.695     0.022    -17.09
   SrCO3           1.431e-18   1.504e-18   -17.844   -17.823     0.022    -14.13
   CdCO3           7.776e-19   8.171e-19   -18.109   -18.088     0.022     (0)  
   Cu(CO3)2-2      6.214e-24   1.899e-24   -23.207   -23.722    -0.515     (0)  
   Zn(CO3)2-2      6.274e-25   1.917e-25   -24.202   -24.717    -0.515     (0)  
   Cd(CO3)2-2      7.535e-30   2.302e-30   -29.123   -29.638    -0.515     (0)  
Ca            1.177e-02
   Ca+2            7.333e-03   2.309e-03    -2.135    -2.637    -0.502    -17.18
   CaSO4           4.414e-03   4.513e-03    -2.355    -2.346     0.010      7.22
   CaHSO4+         2.549e-05   1.895e-05    -4.594    -4.722    -0.129     (0)  
   CaOH+           1.026e-12   7.625e-13   -11.989   -12.118    -0.129     (0)  
   CaCO3           3.289e-15   3.456e-15   -14.483   -14.461     0.022    -14.60
   CaHCO3+         2.563e-15   1.928e-15   -14.591   -14.715    -0.124      9.88
Cd            5.277e-06
   Cd+2            3.778e-06   1.155e-06    -5.423    -5.938    -0.515    -17.87
   CdCl+           9.299e-07   6.914e-07    -6.032    -6.160    -0.129      7.72
   Cd(SO4)2-2      3.918e-07   1.105e-07    -6.407    -6.957    -0.550     37.39
   CdSO4           1.597e-07   1.678e-07    -6.797    -6.775     0.022     18.12
   CdCl2           1.720e-08   1.807e-08    -7.765    -7.743     0.022     23.14
   CdCl3-          9.618e-11   7.151e-11   -10.017   -10.146    -0.129     69.73
   CdF+            8.552e-12   6.359e-12   -11.068   -11.197    -0.129     (0)  
   CdOHCl          5.407e-13   5.682e-13   -12.267   -12.246     0.022     (0)  
   CdHCO3+         4.676e-13   3.476e-13   -12.330   -12.459    -0.129     (0)  
   CdOH+           2.570e-13   1.911e-13   -12.590   -12.719    -0.129     (0)  
   Cd2OH+3         1.556e-17   1.080e-18   -16.808   -17.966    -1.159     (0)  
   CdF2            6.649e-18   6.987e-18   -17.177   -17.156     0.022     (0)  
   CdCO3           7.776e-19   8.171e-19   -18.109   -18.088     0.022     (0)  
   Cd(OH)2         1.943e-20   2.041e-20   -19.712   -19.690     0.022     (0)  
   Cd(CO3)2-2      7.535e-30   2.302e-30   -29.123   -29.638    -0.515     (0)  
   Cd(OH)3-        6.130e-30   4.557e-30   -29.213   -29.341    -0.129     (0)  
   Cd(OH)4-2       2.645e-40   0.000e+00   -39.578   -40.093    -0.515     (0)  
Cl            9.641e-03
   Cl-             8.832e-03   6.271e-03    -2.054    -2.203    -0.149     18.47
   CuCl2-          3.239e-04   2.309e-04    -3.490    -3.637    -0.147     (0)  
   FeCl+           1.122e-04   8.344e-05    -3.950    -4.079    -0.129     (0)  
   MnCl+           1.339e-05   9.830e-06    -4.873    -5.007    -0.134     -2.87
   CuCl+           8.378e-06   5.971e-06    -5.077    -5.224    -0.147      1.17
   CuCl3-2         7.908e-06   2.295e-06    -5.102    -5.639    -0.537     (0)  
   ZnCl+           1.341e-06   9.555e-07    -5.873    -6.020    -0.147    -14.42
   CdCl+           9.299e-07   6.914e-07    -6.032    -6.160    -0.129      7.72
   HCl             8.765e-07   1.083e-06    -6.057    -5.966     0.092     20.36
   MnCl2           2.560e-08   2.691e-08    -7.592    -7.570     0.022     85.89
   CuCl2           1.913e-08   2.011e-08    -7.718    -7.697     0.022     31.02
   CdCl2           1.720e-08   1.807e-08    -7.765    -7.743     0.022     23.14
   ZnCl2           5.970e-09   6.274e-09    -8.224    -8.202     0.022    102.03
   CdCl3-          9.618e-11   7.151e-11   -10.017   -10.146    -0.129     69.73
   MnCl3-          6.332e-11   4.647e-11   -10.198   -10.333    -0.134     44.30
   ZnCl3-          6.194e-11   4.414e-11   -10.208   -10.355    -0.147     15.72
   ZnOHCl          2.226e-11   2.339e-11   -10.653   -10.631     0.022     (0)  
   FeCl+2          6.008e-12   1.743e-12   -11.221   -11.759    -0.537     (0)  
   CuCl3-          6.277e-13   4.474e-13   -12.202   -12.349    -0.147     (0)  
   CdOHCl          5.407e-13   5.682e-13   -12.267   -12.246     0.022     (0)  
   ZnCl4-2         4.781e-13   1.387e-13   -12.320   -12.858    -0.537    147.49
   FeCl2+          6.654e-14   4.883e-14   -13.177   -13.311    -0.134     (0)  
   CuCl4-2         4.846e-17   1.406e-17   -16.315   -16.852    -0.537     (0)  
   FeCl3           2.914e-17   3.062e-17   -16.536   -16.514     0.022     (0)  
Cu(1)         3.594e-04
   CuCl2-          3.239e-04   2.309e-04    -3.490    -3.637    -0.147     (0)  
   Cu+             2.755e-05   1.857e-05    -4.560    -4.731    -0.171     (0)  
   CuCl3-2         7.908e-06   2.295e-06    -5.102    -5.639    -0.537     (0)  
Cu(2)         2.076e-03
   Cu+2            1.105e-03   3.538e-04    -2.957    -3.451    -0.495    -25.73
   CuSO4           9.630e-04   1.012e-03    -3.016    -2.995     0.022     13.09
   CuCl+           8.378e-06   5.971e-06    -5.077    -5.224    -0.147      1.17
   CuCl2           1.913e-08   2.011e-08    -7.718    -7.697     0.022     31.02
   CuOH+           9.875e-09   7.039e-09    -8.005    -8.153    -0.147     (0)  
   CuF+            3.788e-09   2.816e-09    -8.422    -8.550    -0.129     (0)  
   CuHCO3+         2.271e-09   1.688e-09    -8.644    -8.773    -0.129     (0)  
   Cu2(OH)2+2      7.095e-11   2.168e-11   -10.149   -10.664    -0.515     (0)  
   Cu(OH)2         2.784e-11   2.926e-11   -10.555   -10.534     0.022     (0)  
   CuCO3           1.611e-12   1.693e-12   -11.793   -11.771     0.022     (0)  
   CuCl3-          6.277e-13   4.474e-13   -12.202   -12.349    -0.147     (0)  
   CuCl4-2         4.846e-17   1.406e-17   -16.315   -16.852    -0.537     (0)  
   Cu(OH)3-        4.718e-21   3.508e-21   -20.326   -20.455    -0.129     (0)  
   Cu(CO3)2-2      6.214e-24   1.899e-24   -23.207   -23.722    -0.515     (0)  
   Cu(OH)4-2       4.557e-30   1.392e-30   -29.341   -29.856    -0.515     (0)  
F             1.624e-03
   AlF+2           1.375e-03   4.159e-04    -2.862    -3.381    -0.519     (0)  
   AlF2+           1.230e-04   9.119e-05    -3.910    -4.040    -0.130     (0)  
   F-              6.242e-07   4.375e-07    -6.205    -6.359    -0.154     -0.91
   AlF3            4.779e-07   5.022e-07    -6.321    -6.299     0.022     (0)  
   HF              3.129e-07   3.288e-07    -6.505    -6.483     0.022     12.50
   MgF+            9.471e-08   6.855e-08    -7.024    -7.164    -0.140    -10.34
   FeF+            5.672e-08   4.217e-08    -7.246    -7.375    -0.129     (0)  
   CuF+            3.788e-09   2.816e-09    -8.422    -8.550    -0.129     (0)  
   MnF+            1.587e-09   1.165e-09    -8.799    -8.934    -0.134     (0)  
   NaF             1.513e-09   1.590e-09    -8.820    -8.799     0.022      7.26
   ZnF+            4.705e-10   3.498e-10    -9.327    -9.456    -0.129     (0)  
   AlF4-           1.209e-10   8.747e-11    -9.918   -10.058    -0.140     (0)  
   FeF+2           2.200e-11   6.383e-12   -10.658   -11.195    -0.537     (0)  
   CdF+            8.552e-12   6.359e-12   -11.068   -11.197    -0.129     (0)  
   HF2-            7.424e-13   5.520e-13   -12.129   -12.258    -0.129     22.47
   FeF2+           1.515e-13   1.112e-13   -12.820   -12.954    -0.134     (0)  
   FeF3            7.335e-17   7.708e-17   -16.135   -16.113     0.022     (0)  
   CdF2            6.649e-18   6.987e-18   -17.177   -17.156     0.022     (0)  
   SiF6-2          4.629e-24   1.343e-24   -23.335   -23.872    -0.537     44.20
Fe(2)         5.318e-02
   Fe+2            3.011e-02   9.640e-03    -1.521    -2.016    -0.495    -21.22
   FeSO4           2.285e-02   2.402e-02    -1.641    -1.619     0.022     30.28
   FeCl+           1.122e-04   8.344e-05    -3.950    -4.079    -0.129     (0)  
   FeHSO4+         1.064e-04   7.912e-05    -3.973    -4.102    -0.129     (0)  
   FeF+            5.672e-08   4.217e-08    -7.246    -7.375    -0.129     (0)  
   FeHCO3+         1.235e-08   9.179e-09    -7.908    -8.037    -0.129     (0)  
   FeOH+           8.264e-09   6.065e-09    -8.083    -8.217    -0.134     (0)  
   FeCO3           1.961e-13   2.060e-13   -12.708   -12.686     0.022     (0)  
   Fe(OH)2         9.773e-17   1.027e-16   -16.010   -15.988     0.022     (0)  
   Fe(OH)3-        1.034e-23   7.592e-24   -22.985   -23.120    -0.134     (0)  
Fe(3)         3.130e-09
   FeSO4+          1.927e-09   1.414e-09    -8.715    -8.849    -0.134     (0)  
   Fe(SO4)2-       5.830e-10   4.335e-10    -9.234    -9.363    -0.129     (0)  
   FeOH+2          4.076e-10   1.183e-10    -9.390    -9.927    -0.537     (0)  
   Fe(OH)2+        1.051e-10   7.791e-11    -9.979   -10.108    -0.130     (0)  
   Fe+3            7.282e-11   9.206e-12   -10.138   -11.036    -0.898     (0)  
   FeF+2           2.200e-11   6.383e-12   -10.658   -11.195    -0.537     (0)  
   FeHSO4+2        6.212e-12   1.898e-12   -11.207   -11.722    -0.515     (0)  
   FeCl+2          6.008e-12   1.743e-12   -11.221   -11.759    -0.537     (0)  
   FeF2+           1.515e-13   1.112e-13   -12.820   -12.954    -0.134     (0)  
   FeCl2+          6.654e-14   4.883e-14   -13.177   -13.311    -0.134     (0)  
   Fe(OH)3         1.900e-14   1.997e-14   -13.721   -13.700     0.022     (0)  
   FeF3            7.335e-17   7.708e-17   -16.135   -16.113     0.022     (0)  
   Fe2(OH)2+4      4.318e-17   3.764e-19   -16.365   -18.424    -2.060     (0)  
   FeCl3           2.914e-17   3.062e-17   -16.536   -16.514     0.022     (0)  
   Fe(OH)4-        4.886e-20   3.623e-20   -19.311   -19.441    -0.130     (0)  
   Fe3(OH)4+5      1.013e-23   6.127e-27   -22.995   -26.213    -3.218     (0)  
H(0)          3.376e-18
   H2              1.688e-18   1.778e-18   -17.773   -17.750     0.023     14.99
K             2.030e-04
   K+              1.713e-04   1.210e-04    -3.766    -3.917    -0.151      9.36
   KSO4-           3.164e-05   2.579e-05    -4.500    -4.589    -0.089     28.92
   KHCO3           4.896e-13   5.145e-13   -12.310   -12.289     0.022     21.42
Mg            1.603e-02
   MgSO4           7.877e-03   8.699e-03    -2.104    -2.061     0.043     -0.40
   Mg+2            7.031e-03   2.372e-03    -2.153    -2.625    -0.472    -20.90
   Mg(SO4)2-2      1.126e-03   4.014e-04    -2.948    -3.396    -0.448     45.29
   MgF+            9.471e-08   6.855e-08    -7.024    -7.164    -0.140    -10.34
   MgHCO3+         3.707e-10   2.642e-10    -9.431    -9.578    -0.147      5.72
   MgOH+           2.253e-11   1.713e-11   -10.647   -10.766    -0.119     (0)  
   MgCO3           1.919e-15   2.016e-15   -14.717   -14.695     0.022    -17.09
Mn(2)         1.360e-03
   Mn+2            1.202e-03   3.848e-04    -2.920    -3.415    -0.495    -17.47
   MnSO4           1.448e-04   1.379e-04    -3.839    -3.860    -0.021     17.15
   MnCl+           1.339e-05   9.830e-06    -4.873    -5.007    -0.134     -2.87
   MnCl2           2.560e-08   2.691e-08    -7.592    -7.570     0.022     85.89
   MnF+            1.587e-09   1.165e-09    -8.799    -8.934    -0.134     (0)  
   MnHCO3+         4.449e-10   3.265e-10    -9.352    -9.486    -0.134     (0)  
   MnCl3-          6.332e-11   4.647e-11   -10.198   -10.333    -0.134     44.30
   MnOH+           2.681e-11   1.968e-11   -10.572   -10.706    -0.134     (0)  
   MnCO3           2.591e-14   2.723e-14   -13.586   -13.565     0.022     (0)  
   Mn(OH)3-        6.544e-29   4.803e-29   -28.184   -28.318    -0.134     (0)  
Mn(3)         9.406e-25
   Mn+3            9.406e-25   1.189e-25   -24.027   -24.925    -0.898     (0)  
Na            9.540e-03
   Na+             8.488e-03   6.317e-03    -2.071    -2.199    -0.128     -0.91
   NaSO4-          1.052e-03   7.774e-04    -2.978    -3.109    -0.131     19.29
   Na2SO4          2.292e-09   2.395e-09    -8.640    -8.621     0.019     47.96
   NaF             1.513e-09   1.590e-09    -8.820    -8.799     0.022      7.26
   NaHCO3          2.758e-11   2.973e-11   -10.559   -10.527     0.033     17.66
O(0)          0.000e+00
   O2              0.000e+00   0.000e+00   -56.887   -56.865     0.022     30.40
S(6)          1.010e-01
   SO4-2           4.925e-02   1.401e-02    -1.308    -1.854    -0.546     15.60
   FeSO4           2.285e-02   2.402e-02    -1.641    -1.619     0.022     30.28
   MgSO4           7.877e-03   8.699e-03    -2.104    -2.061     0.043     -0.40
   AlSO4+          5.820e-03   4.212e-03    -2.235    -2.376    -0.140     (0)  
   CaSO4           4.414e-03   4.513e-03    -2.355    -2.346     0.010      7.22
   Al(SO4)2-       2.578e-03   1.866e-03    -2.589    -2.729    -0.140     (0)  
   Mg(SO4)2-2      1.126e-03   4.014e-04    -2.948    -3.396    -0.448     45.29
   NaSO4-          1.052e-03   7.774e-04    -2.978    -3.109    -0.131     19.29
   CuSO4           9.630e-04   1.012e-03    -3.016    -2.995     0.022     13.09
   HSO4-           9.182e-04   6.827e-04    -3.037    -3.166    -0.129     40.67
   MnSO4           1.448e-04   1.379e-04    -3.839    -3.860    -0.021     17.15
   ZnSO4           1.373e-04   1.443e-04    -3.862    -3.841     0.022      6.48
   FeHSO4+         1.064e-04   7.912e-05    -3.973    -4.102    -0.129     (0)  
   KSO4-           3.164e-05   2.579e-05    -4.500    -4.589    -0.089     28.92
   CaHSO4+         2.549e-05   1.895e-05    -4.594    -4.722    -0.129     (0)  
   SrSO4           6.873e-06   7.222e-06    -5.163    -5.141     0.022     24.24
   Zn(SO4)2-2      1.104e-06   1.570e-07    -5.957    -6.804    -0.847     45.31
   AlHSO4+2        6.126e-07   1.872e-07    -6.213    -6.728    -0.515     (0)  
   Cd(SO4)2-2      3.918e-07   1.105e-07    -6.407    -6.957    -0.550     37.39
   CdSO4           1.597e-07   1.678e-07    -6.797    -6.775     0.022     18.12
   Na2SO4          2.292e-09   2.395e-09    -8.640    -8.621     0.019     47.96
   FeSO4+          1.927e-09   1.414e-09    -8.715    -8.849    -0.134     (0)  
   Fe(SO4)2-       5.830e-10   4.335e-10    -9.234    -9.363    -0.129     (0)  
   FeHSO4+2        6.212e-12   1.898e-12   -11.207   -11.722    -0.515     (0)  
Si            1.888e-03
   H4SiO4          1.888e-03   1.984e-03    -2.724    -2.703     0.022     52.08
   H3SiO4-         8.188e-10   5.836e-10    -9.087    -9.234    -0.147     28.38
   H2SiO4-2        2.619e-19   7.921e-20   -18.582   -19.101    -0.519     (0)  
   SiF6-2          4.629e-24   1.343e-24   -23.335   -23.872    -0.537     44.20
Sr            1.522e-05
   Sr+2            8.350e-06   2.644e-06    -5.078    -5.578    -0.499    -17.00
   SrSO4           6.873e-06   7.222e-06    -5.163    -5.141     0.022     24.24
   SrHCO3+         5.193e-13   3.851e-13   -12.285   -12.414    -0.130     (0)  
   SrOH+           3.676e-16   2.698e-16   -15.435   -15.569    -0.134     (0)  
   SrCO3           1.431e-18   1.504e-18   -17.844   -17.823     0.022    -14.13
Zn            3.349e-04
   Zn+2            1.951e-04   5.661e-05    -3.710    -4.247    -0.537    -24.46
   ZnSO4           1.373e-04   1.443e-04    -3.862    -3.841     0.022      6.48
   ZnCl+           1.341e-06   9.555e-07    -5.873    -6.020    -0.147    -14.42
   Zn(SO4)2-2      1.104e-06   1.570e-07    -5.957    -6.804    -0.847     45.31
   ZnCl2           5.970e-09   6.274e-09    -8.224    -8.202     0.022    102.03
   ZnF+            4.705e-10   3.498e-10    -9.327    -9.456    -0.129     (0)  
   ZnOH+           1.661e-10   1.235e-10    -9.780    -9.908    -0.129     (0)  
   ZnHCO3+         9.128e-11   6.786e-11   -10.040   -10.168    -0.129     (0)  
   ZnCl3-          6.194e-11   4.414e-11   -10.208   -10.355    -0.147     15.72
   ZnOHCl          2.226e-11   2.339e-11   -10.653   -10.631     0.022     (0)  
   ZnCl4-2         4.781e-13   1.387e-13   -12.320   -12.858    -0.537    147.49
   ZnCO3           9.577e-15   1.006e-14   -14.019   -13.997     0.022     (0)  
   Zn(OH)2         2.685e-15   2.821e-15   -14.571   -14.550     0.022     (0)  
   Zn(OH)3-        2.387e-23   1.775e-23   -22.622   -22.751    -0.129     (0)  
   Zn(CO3)2-2      6.274e-25   1.917e-25   -24.202   -24.717    -0.515     (0)  
   Zn(OH)4-2       1.832e-32   5.597e-33   -31.737   -32.252    -0.515     (0)  

------------------------------Saturation indices-------------------------------

  Phase               SI** log IAP   log K(298 K,   1 atm)

  Al(OH)3(a)       -4.93      5.87   10.80  Al(OH)3
  Albite           -5.79    -23.79  -18.00  NaAlSi3O8
  Alunite           1.50      0.10   -1.40  KAl3(SO4)2(OH)6
  Anhydrite        -0.18     -4.49   -4.31  CaSO4
  Anorthite       -15.30    -35.02  -19.71  CaAl2Si2O8
  Aragonite        -9.35    -17.69   -8.34  CaCO3
  Arcanite         -7.81     -9.69   -1.88  K2SO4
  Ca-Montmorillonite  -3.35    -48.37  -45.03  Ca0.165Al2.33Si3.67O10(OH)2
  Calcite          -9.24    -17.69   -8.45  CaCO3
  Cd(OH)2         -12.99      0.66   13.65  Cd(OH)2
  CdSiO3          -11.10     -2.04    9.06  CdSiO3
  CdSO4            -7.69     -7.79   -0.10  CdSO4
  Celestite        -0.77     -7.43   -6.66  SrSO4
  Chalcedony        0.85     -2.70   -3.55  SiO2
  Chlorite(14A)   -44.86     23.52   68.38  Mg5Al2Si3O10(OH)8
  Chrysotile      -25.68      6.52   32.20  Mg3Si2O5(OH)4
  CO2(g)           -3.50     -4.97   -1.47  CO2	 Pressure   0.0 atm, phi 1.000
  Dolomite        -18.28    -35.36  -17.08  CaMg(CO3)2
  Epsomite         -2.75     -4.49   -1.74  MgSO4:7H2O
  Fe(OH)3(a)       -6.03     -1.14    4.89  Fe(OH)3
  Fluorite         -4.75    -15.35  -10.60  CaF2
  Gibbsite         -2.24      5.87    8.11  Al(OH)3
  Goethite         -0.14     -1.14   -1.00  FeOOH
  Gypsum            0.06     -4.49   -4.55  CaSO4:2H2O
  H2(g)           -14.65    -17.75   -3.10  H2
  H2O(g)           -1.50     -0.00    1.50  H2O
  Halite           -5.97     -4.40    1.57  NaCl
  Hausmannite     -36.88     24.15   61.03  Mn3O4
  Hematite          1.73     -2.28   -4.01  Fe2O3
  Hexahydrite      -2.92     -4.49   -1.57  MgSO4:6H2O
  Illite           -7.18    -47.44  -40.27  K0.6Mg0.25Al2.3Si3.5O10(OH)2
  Jarosite-K      -11.73    -20.94   -9.21  KFe3(SO4)2(OH)6
  K-feldspar       -4.93    -25.51  -20.57  KAlSi3O8
  K-mica           -3.79      8.91   12.70  KAl3Si3O10(OH)2
  Kaolinite        -1.09      6.35    7.43  Al2Si2O5(OH)4
  Kieserite        -3.32     -4.48   -1.16  MgSO4:H2O
  Manganite       -14.86     10.48   25.34  MnOOH
  Melanterite      -1.67     -3.88   -2.21  FeSO4:7H2O
  Mirabilite       -5.56     -6.26   -0.71  Na2SO4:10H2O
  O2(g)           -53.97    -56.87   -2.89  O2
  Otavite          -8.89    -20.99  -12.10  CdCO3
  Pyrochroite     -12.02      3.18   15.20  Mn(OH)2
  Pyrolusite      -23.60     17.78   41.38  MnO2:H2O
  Quartz            1.28     -2.70   -3.98  SiO2
  Rhodochrosite    -7.33    -18.46  -11.13  MnCO3
  Sepiolite       -15.92     -0.16   15.76  Mg2Si3O7.5OH:3H2O
  Sepiolite(d)    -18.82     -0.16   18.66  Mg2Si3O7.5OH:3H2O
  Siderite         -6.18    -17.07  -10.89  FeCO3
  SiO2(a)           0.01     -2.70   -2.71  SiO2
  Smithsonite      -9.30    -19.30  -10.00  ZnCO3
  Strontianite    -11.36    -20.63   -9.27  SrCO3
  Sylvite          -7.02     -6.12    0.90  KCl
  Talc            -20.28      1.12   21.40  Mg3Si4O10(OH)2
  Thenardite       -6.90     -6.25    0.65  Na2SO4
  Willemite       -13.33      2.00   15.33  Zn2SiO4
  Zn(OH)2(e)       -9.15      2.35   11.50  Zn(OH)2

**For a gas, SI = log10(fugacity). Fugacity = pressure * phi / 1 atm.
  For ideal gases, phi = 1.

Initial solution 1.	

-----------------------------Solution composition------------------------------

	Elements           Molality       Moles

	Al                1.801e-06   1.801e-06
	Alkalinity        2.301e-03   2.301e-03
	Ca                1.227e-03   1.227e-03  Charge balance
	Cd                4.501e-09   4.501e-09
	Cl                4.801e-04   4.801e-04
	Cu                1.500e-07   1.500e-07
	F                 1.580e-05   1.580e-05
	Fe                3.501e-07   3.501e-07
	K                 3.001e-05   3.001e-05
	Mg                3.701e-04   3.701e-04
	Mn                1.000e-07   1.000e-07
	Na                9.603e-04   9.603e-04
	O(0)              2.201e-04   2.201e-04
	S(6)              7.002e-04   7.002e-04
	Si                4.001e-04   4.001e-04
	Sr                2.701e-06   2.701e-06
	Zn                2.501e-07   2.501e-07

----------------------------Description of solution----------------------------

                                       pH  =   7.190    
                                       pe  =   4.000    
      Specific Conductance (µS/cm,  25°C)  = 445
                          Density (g/cm³)  =   0.99732
                               Volume (L)  =   1.00305
                        Viscosity (mPa s)  =   0.89193
                        Activity of water  =   1.000
                 Ionic strength (mol/kgw)  =   6.140e-03
                       Mass of water (kg)  =   1.000e+00
                    Total carbon (mol/kg)  =   2.592e-03
                       Total CO2 (mol/kg)  =   2.592e-03
                         Temperature (°C)  =  25.00
                  Electrical balance (eq)  =   1.532e-17
 Percent error, 100*(Cat-|An|)/(Cat+|An|)  =   0.00
                               Iterations  =  11 (20 overall)
                                  Total H  = 1.110163e+02
                                  Total O  = 5.551832e+01

---------------------------------Redox couples---------------------------------

	Redox couple             pe  Eh (volts)

	O(-2)/O(0)          13.3362      0.7889

----------------------------Distribution of species----------------------------

                                               Log       Log       Log    mole V
   Species          Molality    Activity  Molality  Activity     Gamma   cm³/mol

   OH-             1.706e-07   1.567e-07    -6.768    -6.805    -0.037     -4.06
   H+              6.957e-08   6.457e-08    -7.158    -7.190    -0.032      0.00
   H2O             5.551e+01   9.999e-01     1.744    -0.000     0.000     18.07
Al            1.801e-06
   Al(OH)4-        1.718e-06   1.582e-06    -5.765    -5.801    -0.036     (0)  
   Al(OH)3         5.414e-08   5.422e-08    -7.266    -7.266     0.001     (0)  
   Al(OH)2+        2.576e-08   2.376e-08    -7.589    -7.624    -0.035     (0)  
   AlF2+           1.411e-09   1.301e-09    -8.850    -8.886    -0.035     (0)  
   AlOH+2          2.704e-10   1.958e-10    -9.568    -9.708    -0.140    -27.61
   AlF+2           2.511e-10   1.818e-10    -9.600    -9.740    -0.140     (0)  
   AlF3            2.337e-10   2.340e-10    -9.631    -9.631     0.001     (0)  
   Al+3            2.493e-12   1.273e-12   -11.603   -11.895    -0.292    -41.99
   AlSO4+          1.940e-12   1.786e-12   -11.712   -11.748    -0.036     (0)  
   AlF4-           1.445e-12   1.331e-12   -11.840   -11.876    -0.036     (0)  
   Al(SO4)2-       2.722e-14   2.507e-14   -13.565   -13.601    -0.036     (0)  
   AlHSO4+2        1.426e-20   1.023e-20   -19.846   -19.990    -0.144     (0)  
C(4)          2.592e-03
   HCO3-           2.275e-03   2.099e-03    -2.643    -2.678    -0.035     24.65
   CO2             3.044e-04   3.047e-04    -3.517    -3.516     0.000     34.79
   MgHCO3+         6.492e-06   5.972e-06    -5.188    -5.224    -0.036      5.51
   CaCO3           2.169e-06   2.172e-06    -5.664    -5.663     0.001    -14.60
   CO3-2           2.106e-06   1.525e-06    -5.677    -5.817    -0.140     -4.46
   NaHCO3          9.113e-07   9.132e-07    -6.040    -6.039     0.001     17.66
   MgCO3           3.533e-07   3.538e-07    -6.452    -6.451     0.001    -17.09
   CuCO3           7.647e-08   7.658e-08    -7.116    -7.116     0.001     (0)  
   SrHCO3+         6.256e-08   5.770e-08    -7.204    -7.239    -0.035     (0)  
   ZnCO3           3.627e-08   3.632e-08    -7.440    -7.440     0.001     (0)  
   ZnHCO3+         3.429e-08   3.155e-08    -7.465    -7.501    -0.036     (0)  
   KHCO3           2.563e-08   2.567e-08    -7.591    -7.591     0.001     21.42
   FeHCO3+         2.460e-08   2.263e-08    -7.609    -7.645    -0.036     (0)  
   MnHCO3+         1.185e-08   1.092e-08    -7.926    -7.962    -0.035     (0)  
   CuHCO3+         1.069e-08   9.839e-09    -7.971    -8.007    -0.036     (0)  
   MnCO3           7.060e-09   7.070e-09    -8.151    -8.151     0.001     (0)  
   FeCO3           3.938e-09   3.944e-09    -8.405    -8.404     0.001     (0)  
   SrCO3           1.747e-09   1.749e-09    -8.758    -8.757     0.001    -14.13
   Zn(CO3)2-2      1.651e-09   1.184e-09    -8.782    -8.927    -0.144     (0)  
   (CO2)2          1.508e-09   1.510e-09    -8.822    -8.821     0.000     68.75
   CdHCO3+         2.135e-10   1.965e-10    -9.671    -9.707    -0.036     (0)  
   Cu(CO3)2-2      2.050e-10   1.470e-10    -9.688    -9.833    -0.144     (0)  
   CaHCO3+         1.690e-10   1.561e-10    -9.772    -9.807    -0.035      9.71
   CdCO3           3.580e-12   3.585e-12   -11.446   -11.446     0.001     (0)  
   Cd(CO3)2-2      2.410e-14   1.728e-14   -13.618   -13.762    -0.144     (0)  
Ca            1.227e-03
   Ca+2            1.172e-03   8.482e-04    -2.931    -3.072    -0.141    -17.99
   CaSO4           5.248e-05   5.251e-05    -4.280    -4.280     0.000      7.22
   CaCO3           2.169e-06   2.172e-06    -5.664    -5.663     0.001    -14.60
   CaOH+           2.369e-09   2.180e-09    -8.625    -8.662    -0.036     (0)  
   CaHCO3+         1.690e-10   1.561e-10    -9.772    -9.807    -0.035      9.71
   CaHSO4+         3.088e-11   2.841e-11   -10.510   -10.547    -0.036     (0)  
Cd            4.501e-09
   Cd+2            4.129e-09   2.960e-09    -8.384    -8.529    -0.144    -18.60
   CdHCO3+         2.135e-10   1.965e-10    -9.671    -9.707    -0.036     (0)  
   CdCl+           1.356e-10   1.248e-10    -9.868    -9.904    -0.036      5.91
   CdSO4           1.361e-11   1.363e-11   -10.866   -10.865     0.001     18.12
   CdOH+           4.144e-12   3.813e-12   -11.383   -11.419    -0.036     (0)  
   CdCO3           3.580e-12   3.585e-12   -11.446   -11.446     0.001     (0)  
   CdOHCl          7.973e-13   7.984e-13   -12.098   -12.098     0.001     (0)  
   CdF+            5.786e-13   5.324e-13   -12.238   -12.274    -0.036     (0)  
   Cd(SO4)2-2      3.939e-13   2.843e-13   -12.405   -12.546    -0.142     36.79
   CdCl2           2.294e-13   2.297e-13   -12.639   -12.639     0.001     23.14
   Cd(CO3)2-2      2.410e-14   1.728e-14   -13.618   -13.762    -0.144     (0)  
   Cd(OH)2         3.167e-15   3.171e-15   -14.499   -14.499     0.001     (0)  
   CdCl3-          6.954e-17   6.399e-17   -16.158   -16.194    -0.036     69.36
   CdF2            1.908e-17   1.910e-17   -16.720   -16.719     0.001     (0)  
   Cd2OH+3         1.169e-19   5.529e-20   -18.932   -19.257    -0.325     (0)  
   Cd(OH)3-        5.988e-21   5.511e-21   -20.223   -20.259    -0.036     (0)  
   Cd(OH)4-2       1.061e-27   7.606e-28   -26.974   -27.119    -0.144     (0)  
Cl            4.801e-04
   Cl-             4.801e-04   4.415e-04    -3.319    -3.355    -0.036     18.12
   ZnCl+           1.542e-10   1.419e-10    -9.812    -9.848    -0.036    -13.88
   CdCl+           1.356e-10   1.248e-10    -9.868    -9.904    -0.036      5.91
   MnCl+           1.139e-10   1.050e-10    -9.943    -9.979    -0.035     -3.05
   FeCl+           7.142e-11   6.572e-11   -10.146   -10.182    -0.036     (0)  
   CuCl2-          3.289e-11   3.026e-11   -10.483   -10.519    -0.036     (0)  
   ZnOHCl          2.700e-11   2.704e-11   -10.569   -10.568     0.001     (0)  
   CuCl+           1.208e-11   1.112e-11   -10.918   -10.954    -0.036      0.68
   HCl             9.761e-12   9.820e-12   -11.011   -11.008     0.003     20.36
   CdOHCl          7.973e-13   7.984e-13   -12.098   -12.098     0.001     (0)  
   CdCl2           2.294e-13   2.297e-13   -12.639   -12.639     0.001     23.14
   ZnCl2           6.551e-14   6.560e-14   -13.184   -13.183     0.001    102.03
   CuCl3-2         2.934e-14   2.117e-14   -13.533   -13.674    -0.142     (0)  
   MnCl2           2.021e-14   2.024e-14   -13.694   -13.694     0.001     85.89
   CuCl2           2.632e-15   2.635e-15   -14.580   -14.579     0.001     31.02
   CdCl3-          6.954e-17   6.399e-17   -16.158   -16.194    -0.036     69.36
   ZnCl3-          3.532e-17   3.250e-17   -16.452   -16.488    -0.036     16.98
   MnCl3-          2.670e-18   2.461e-18   -17.574   -17.609    -0.035     43.40
   FeCl+2          1.903e-18   1.373e-18   -17.721   -17.862    -0.142     (0)  
   ZnCl4-2         9.963e-21   7.191e-21   -20.002   -20.143    -0.142    145.36
   CuCl3-          4.488e-21   4.128e-21   -20.348   -20.384    -0.036     (0)  
   FeCl2+          2.938e-21   2.708e-21   -20.532   -20.567    -0.035     (0)  
   FeCl3           1.194e-25   1.196e-25   -24.923   -24.922     0.001     (0)  
   CuCl4-2         1.266e-26   9.135e-27   -25.898   -26.039    -0.142     (0)  
Cu(1)         5.681e-10
   Cu+             5.352e-10   4.909e-10    -9.271    -9.309    -0.038     (0)  
   CuCl2-          3.289e-11   3.026e-11   -10.483   -10.519    -0.036     (0)  
   CuCl3-2         2.934e-14   2.117e-14   -13.533   -13.674    -0.142     (0)  
Cu(2)         1.495e-07
   CuCO3           7.647e-08   7.658e-08    -7.116    -7.116     0.001     (0)  
   Cu(OH)2         4.680e-08   4.687e-08    -7.330    -7.329     0.001     (0)  
   Cu+2            1.287e-08   9.354e-09    -7.891    -8.029    -0.138    -26.46
   CuHCO3+         1.069e-08   9.839e-09    -7.971    -8.007    -0.036     (0)  
   CuOH+           1.575e-09   1.449e-09    -8.803    -8.839    -0.036     (0)  
   CuSO4           8.465e-10   8.477e-10    -9.072    -9.072     0.001     13.09
   Cu(CO3)2-2      2.050e-10   1.470e-10    -9.688    -9.833    -0.144     (0)  
   CuCl+           1.208e-11   1.112e-11   -10.918   -10.954    -0.036      0.68
   CuF+            2.642e-12   2.431e-12   -11.578   -11.614    -0.036     (0)  
   Cu2(OH)2+2      1.281e-12   9.182e-13   -11.893   -12.037    -0.144     (0)  
   Cu(OH)3-        4.753e-14   4.374e-14   -13.323   -13.359    -0.036     (0)  
   CuCl2           2.632e-15   2.635e-15   -14.580   -14.579     0.001     31.02
   Cu(OH)4-2       1.885e-19   1.351e-19   -18.725   -18.869    -0.144     (0)  
   CuCl3-          4.488e-21   4.128e-21   -20.348   -20.384    -0.036     (0)  
   CuCl4-2         1.266e-26   9.135e-27   -25.898   -26.039    -0.142     (0)  
F             1.580e-05
   F-              1.554e-05   1.428e-05    -4.808    -4.845    -0.037     -1.27
   MgF+            2.492e-07   2.295e-07    -6.603    -6.639    -0.036    -10.54
   NaF             7.226e-09   7.236e-09    -8.141    -8.140     0.001      7.26
   AlF2+           1.411e-09   1.301e-09    -8.850    -8.886    -0.035     (0)  
   HF              1.381e-09   1.383e-09    -8.860    -8.859     0.001     12.50
   AlF+2           2.511e-10   1.818e-10    -9.600    -9.740    -0.140     (0)  
   AlF3            2.337e-10   2.340e-10    -9.631    -9.631     0.001     (0)  
   ZnF+            2.619e-11   2.410e-11   -10.582   -10.618    -0.036     (0)  
   FeF+            1.674e-11   1.540e-11   -10.776   -10.812    -0.036     (0)  
   MnF+            6.260e-12   5.770e-12   -11.203   -11.239    -0.035     (0)  
   CuF+            2.642e-12   2.431e-12   -11.578   -11.614    -0.036     (0)  
   AlF4-           1.445e-12   1.331e-12   -11.840   -11.876    -0.036     (0)  
   CdF+            5.786e-13   5.324e-13   -12.238   -12.274    -0.036     (0)  
   HF2-            8.239e-14   7.581e-14   -13.084   -13.120    -0.036     22.10
   FeF+2           3.231e-15   2.332e-15   -14.491   -14.632    -0.142     (0)  
   FeF2+           1.439e-15   1.326e-15   -14.842   -14.877    -0.035     (0)  
   FeF3            2.998e-17   3.002e-17   -16.523   -16.523     0.001     (0)  
   CdF2            1.908e-17   1.910e-17   -16.720   -16.719     0.001     (0)  
   SiF6-2          1.238e-31   8.937e-32   -30.907   -31.049    -0.142     42.75
Fe(2)         1.860e-07
   Fe+2            1.483e-07   1.078e-07    -6.829    -6.967    -0.138    -21.99
   FeHCO3+         2.460e-08   2.263e-08    -7.609    -7.645    -0.036     (0)  
   FeSO4           8.500e-09   8.512e-09    -8.071    -8.070     0.001     30.28
   FeCO3           3.938e-09   3.944e-09    -8.405    -8.404     0.001     (0)  
   FeOH+           5.730e-10   5.281e-10    -9.242    -9.277    -0.035     (0)  
   FeCl+           7.142e-11   6.572e-11   -10.146   -10.182    -0.036     (0)  
   FeF+            1.674e-11   1.540e-11   -10.776   -10.812    -0.036     (0)  
   Fe(OH)2         6.951e-14   6.961e-14   -13.158   -13.157     0.001     (0)  
   FeHSO4+         3.926e-15   3.612e-15   -14.406   -14.442    -0.036     (0)  
   Fe(OH)3-        4.345e-17   4.005e-17   -16.362   -16.397    -0.035     (0)  
Fe(3)         1.641e-07
   Fe(OH)3         1.052e-07   1.053e-07    -6.978    -6.977     0.001     (0)  
   Fe(OH)2+        5.725e-08   5.280e-08    -7.242    -7.277    -0.035     (0)  
   Fe(OH)4-        1.613e-09   1.488e-09    -8.792    -8.827    -0.035     (0)  
   FeOH+2          1.427e-11   1.030e-11   -10.846   -10.987    -0.142     (0)  
   FeF+2           3.231e-15   2.332e-15   -14.491   -14.632    -0.142     (0)  
   FeF2+           1.439e-15   1.326e-15   -14.842   -14.877    -0.035     (0)  
   FeSO4+          5.438e-16   5.012e-16   -15.265   -15.300    -0.035     (0)  
   Fe+3            2.017e-16   1.030e-16   -15.695   -15.987    -0.292     (0)  
   FeF3            2.998e-17   3.002e-17   -16.523   -16.523     0.001     (0)  
   Fe(SO4)2-       5.289e-18   4.867e-18   -17.277   -17.313    -0.036     (0)  
   FeCl+2          1.903e-18   1.373e-18   -17.721   -17.862    -0.142     (0)  
   Fe2(OH)2+4      1.080e-20   2.854e-21   -19.967   -20.545    -0.578     (0)  
   FeCl2+          2.938e-21   2.708e-21   -20.532   -20.567    -0.035     (0)  
   FeHSO4+2        1.209e-22   8.665e-23   -21.918   -22.062    -0.144     (0)  
   Fe3(OH)4+5      2.519e-25   3.149e-26   -24.599   -25.502    -0.903     (0)  
   FeCl3           1.194e-25   1.196e-25   -24.923   -24.922     0.001     (0)  
H(0)          5.894e-26
   H2              2.947e-26   2.951e-26   -25.531   -25.530     0.001     14.99
K             3.001e-05
   K+              2.978e-05   2.738e-05    -4.526    -4.563    -0.037      9.05
   KSO4-           1.999e-07   1.849e-07    -6.699    -6.733    -0.034     20.00
   KHCO3           2.563e-08   2.567e-08    -7.591    -7.591     0.001     21.42
Mg            3.701e-04
   Mg+2            3.348e-04   2.432e-04    -3.475    -3.614    -0.139    -21.68
   MgSO4           2.818e-05   2.826e-05    -4.550    -4.549     0.001     -0.40
   MgHCO3+         6.492e-06   5.972e-06    -5.188    -5.224    -0.036      5.51
   MgCO3           3.533e-07   3.538e-07    -6.452    -6.451     0.001    -17.09
   MgF+            2.492e-07   2.295e-07    -6.603    -6.639    -0.036    -10.54
   Mg(SO4)2-2      5.640e-08   4.132e-08    -7.249    -7.384    -0.135     36.98
   MgOH+           1.480e-08   1.367e-08    -7.830    -7.864    -0.034     (0)  
Mn(2)         1.000e-07
   Mn+2            8.031e-08   5.839e-08    -7.095    -7.234    -0.138    -20.14
   MnHCO3+         1.185e-08   1.092e-08    -7.926    -7.962    -0.035     (0)  
   MnCO3           7.060e-09   7.070e-09    -8.151    -8.151     0.001     (0)  
   MnSO4           6.640e-10   6.630e-10    -9.178    -9.178    -0.001     17.15
   MnCl+           1.139e-10   1.050e-10    -9.943    -9.979    -0.035     -3.05
   MnOH+           2.522e-11   2.324e-11   -10.598   -10.634    -0.035     (0)  
   MnF+            6.260e-12   5.770e-12   -11.203   -11.239    -0.035     (0)  
   MnCl2           2.021e-14   2.024e-14   -13.694   -13.694     0.001     85.89
   MnCl3-          2.670e-18   2.461e-18   -17.574   -17.609    -0.035     43.40
   Mn(OH)3-        3.729e-21   3.437e-21   -20.428   -20.464    -0.035     (0)  
Mn(3)         3.535e-29
   Mn+3            3.535e-29   1.804e-29   -28.452   -28.744    -0.292     (0)  
Na            9.603e-04
   Na+             9.556e-04   8.803e-04    -3.020    -3.055    -0.036     -1.41
   NaSO4-          3.729e-06   3.432e-06    -5.428    -5.464    -0.036     16.86
   NaHCO3          9.113e-07   9.132e-07    -6.040    -6.039     0.001     17.66
   NaF             7.226e-09   7.236e-09    -8.141    -8.140     0.001      7.26
   Na2SO4          1.471e-12   1.473e-12   -11.832   -11.832     0.001     47.96
O(0)          2.201e-04
   O2              1.100e-04   1.102e-04    -3.958    -3.958     0.001     30.40
S(6)          7.002e-04
   SO4-2           6.153e-04   4.438e-04    -3.211    -3.353    -0.142     14.64
   CaSO4           5.248e-05   5.251e-05    -4.280    -4.280     0.000      7.22
   MgSO4           2.818e-05   2.826e-05    -4.550    -4.549     0.001     -0.40
   NaSO4-          3.729e-06   3.432e-06    -5.428    -5.464    -0.036     16.86
   KSO4-           1.999e-07   1.849e-07    -6.699    -6.733    -0.034     20.00
   SrSO4           1.553e-07   1.555e-07    -6.809    -6.808     0.001     24.24
   Mg(SO4)2-2      5.640e-08   4.132e-08    -7.249    -7.384    -0.135     36.98
   ZnSO4           9.631e-09   9.645e-09    -8.016    -8.016     0.001      6.48
   FeSO4           8.500e-09   8.512e-09    -8.071    -8.070     0.001     30.28
   HSO4-           3.028e-09   2.786e-09    -8.519    -8.555    -0.036     40.32
   CuSO4           8.465e-10   8.477e-10    -9.072    -9.072     0.001     13.09
   MnSO4           6.640e-10   6.630e-10    -9.178    -9.178    -0.001     17.15
   CaHSO4+         3.088e-11   2.841e-11   -10.510   -10.547    -0.036     (0)  
   CdSO4           1.361e-11   1.363e-11   -10.866   -10.865     0.001     18.12
   AlSO4+          1.940e-12   1.786e-12   -11.712   -11.748    -0.036     (0)  
   Na2SO4          1.471e-12   1.473e-12   -11.832   -11.832     0.001     47.96
   Zn(SO4)2-2      4.769e-13   3.323e-13   -12.322   -12.478    -0.157     44.57
   Cd(SO4)2-2      3.939e-13   2.843e-13   -12.405   -12.546    -0.142     36.79
   Al(SO4)2-       2.722e-14   2.507e-14   -13.565   -13.601    -0.036     (0)  
   FeHSO4+         3.926e-15   3.612e-15   -14.406   -14.442    -0.036     (0)  
   FeSO4+          5.438e-16   5.012e-16   -15.265   -15.300    -0.035     (0)  
   Fe(SO4)2-       5.289e-18   4.867e-18   -17.277   -17.313    -0.036     (0)  
   AlHSO4+2        1.426e-20   1.023e-20   -19.846   -19.990    -0.144     (0)  
   FeHSO4+2        1.209e-22   8.665e-23   -21.918   -22.062    -0.144     (0)  
Si            4.001e-04
   H4SiO4          3.991e-04   3.997e-04    -3.399    -3.398     0.001     52.08
   H3SiO4-         9.922e-07   9.128e-07    -6.003    -6.040    -0.036     28.02
   H2SiO4-2        1.329e-12   9.617e-13   -11.877   -12.017    -0.140     (0)  
   SiF6-2          1.238e-31   8.937e-32   -30.907   -31.049    -0.142     42.75
Sr            2.701e-06
   Sr+2            2.481e-06   1.797e-06    -5.605    -5.745    -0.140    -17.84
   SrSO4           1.553e-07   1.555e-07    -6.809    -6.808     0.001     24.24
   SrHCO3+         6.256e-08   5.770e-08    -7.204    -7.239    -0.035     (0)  
   SrCO3           1.747e-09   1.749e-09    -8.758    -8.757     0.001    -14.13
   SrOH+           1.549e-12   1.427e-12   -11.810   -11.845    -0.035     (0)  
Zn            2.501e-07
   Zn+2            1.655e-07   1.194e-07    -6.781    -6.923    -0.142    -25.21
   ZnCO3           3.627e-08   3.632e-08    -7.440    -7.440     0.001     (0)  
   ZnHCO3+         3.429e-08   3.155e-08    -7.465    -7.501    -0.036     (0)  
   ZnSO4           9.631e-09   9.645e-09    -8.016    -8.016     0.001      6.48
   ZnOH+           2.204e-09   2.028e-09    -8.657    -8.693    -0.036     (0)  
   Zn(CO3)2-2      1.651e-09   1.184e-09    -8.782    -8.927    -0.144     (0)  
   Zn(OH)2         3.600e-10   3.605e-10    -9.444    -9.443     0.001     (0)  
   ZnCl+           1.542e-10   1.419e-10    -9.812    -9.848    -0.036    -13.88
   ZnOHCl          2.700e-11   2.704e-11   -10.569   -10.568     0.001     (0)  
   ZnF+            2.619e-11   2.410e-11   -10.582   -10.618    -0.036     (0)  
   Zn(SO4)2-2      4.769e-13   3.323e-13   -12.322   -12.478    -0.157     44.57
   ZnCl2           6.551e-14   6.560e-14   -13.184   -13.183     0.001    102.03
   Zn(OH)3-        1.919e-14   1.766e-14   -13.717   -13.753    -0.036     (0)  
   ZnCl3-          3.532e-17   3.250e-17   -16.452   -16.488    -0.036     16.98
   Zn(OH)4-2       6.044e-20   4.334e-20   -19.219   -19.363    -0.144     (0)  
   ZnCl4-2         9.963e-21   7.191e-21   -20.002   -20.143    -0.142    145.36

------------------------------Saturation indices-------------------------------

  Phase               SI** log IAP   log K(298 K,   1 atm)

  Al(OH)3(a)       -1.13      9.67   10.80  Al(OH)3
  Albite           -1.05    -19.05  -18.00  NaAlSi3O8
  Alunite          -2.41     -3.81   -1.40  KAl3(SO4)2(OH)6
  Anhydrite        -2.11     -6.42   -4.31  CaSO4
  Anorthite        -1.76    -21.47  -19.71  CaAl2Si2O8
  Aragonite        -0.55     -8.89   -8.34  CaCO3
  Arcanite        -10.60    -12.48   -1.88  K2SO4
  Ca-Montmorillonite   4.15    -40.87  -45.03  Ca0.165Al2.33Si3.67O10(OH)2
  Calcite          -0.44     -8.89   -8.45  CaCO3
  Cd(OH)2          -7.80      5.85   13.65  Cd(OH)2
  CdSiO3           -6.61      2.45    9.06  CdSiO3
  CdSO4           -11.78    -11.88   -0.10  CdSO4
  Celestite        -2.44     -9.10   -6.66  SrSO4
  Chalcedony        0.15     -3.40   -3.55  SiO2
  Chlorite(14A)    -5.40     62.98   68.38  Mg5Al2Si3O10(OH)8
  Chrysotile       -6.70     25.50   32.20  Mg3Si2O5(OH)4
  CO2(g)           -2.05     -3.52   -1.47  CO2
  Dolomite         -1.24    -18.32  -17.08  CaMg(CO3)2
  Epsomite         -5.23     -6.97   -1.74  MgSO4:7H2O
  Fe(OH)3(a)        0.69      5.58    4.89  Fe(OH)3
  Fluorite         -2.16    -12.76  -10.60  CaF2
  Gibbsite          1.56      9.67    8.11  Al(OH)3
  Goethite          6.58      5.58   -1.00  FeOOH
  Gypsum           -1.88     -6.42   -4.55  CaSO4:2H2O
  H2(g)           -22.43    -25.53   -3.10  H2
  H2O(g)           -1.50     -0.00    1.50  H2O
  Halite           -7.98     -6.41    1.57  NaCl
  Hausmannite     -17.21     43.82   61.03  Mn3O4
  Hematite         15.17     11.17   -4.01  Fe2O3
  Hexahydrite      -5.40     -6.97   -1.57  MgSO4:6H2O
  Illite            2.76    -37.50  -40.27  K0.6Mg0.25Al2.3Si3.5O10(OH)2
  Jarosite-K       -6.88    -16.09   -9.21  KFe3(SO4)2(OH)6
  K-feldspar        0.02    -20.56  -20.57  KAlSi3O8
  K-mica            8.75     21.46   12.70  KAl3Si3O10(OH)2
  Kaolinite         5.12     12.55    7.43  Al2Si2O5(OH)4
  Kieserite        -5.81     -6.97   -1.16  MgSO4:H2O
  Manganite        -7.00     18.34   25.34  MnOOH
  Melanterite      -8.11    -10.32   -2.21  FeSO4:7H2O
  Mirabilite       -8.76     -9.46   -0.71  Na2SO4:10H2O
  O2(g)            -1.07     -3.96   -2.89  O2
  Otavite          -2.25    -14.35  -12.10  CdCO3
  Pyrochroite      -8.05      7.15   15.20  Mn(OH)2
  Pyrolusite      -11.85     29.53   41.38  MnO2:H2O
  Quartz            0.58     -3.40   -3.98  SiO2
  Rhodochrosite    -1.92    -13.05  -11.13  MnCO3
  Sepiolite        -4.42     11.34   15.76  Mg2Si3O7.5OH:3H2O
  Sepiolite(d)     -7.32     11.34   18.66  Mg2Si3O7.5OH:3H2O
  Siderite         -1.89    -12.78  -10.89  FeCO3
  SiO2(a)          -0.69     -3.40   -2.71  SiO2
  Smithsonite      -2.74    -12.74  -10.00  ZnCO3
  Strontianite     -2.29    -11.56   -9.27  SrCO3
  Sylvite          -8.82     -7.92    0.90  KCl
  Talc             -2.69     18.70   21.40  Mg3Si4O10(OH)2
  Thenardite      -10.11     -9.46    0.65  Na2SO4
  Willemite        -3.81     11.52   15.33  Zn2SiO4
  Zn(OH)2(e)       -4.04      7.46   11.50  Zn(OH)2

**For a gas, SI = log10(fugacity). Fugacity = pressure * phi / 1 atm.
  For ideal gases, phi = 1.

------------------------------------
Beginning of advection calculations.
------------------------------------

Beginning of advection time step 1, cumulative pore volumes 0.200000.
Beginning of advection time step 2, cumulative pore volumes 0.400000.
Beginning of advection time step 3, cumulative pore volumes 0.600000.
Beginning of advection time step 4, cumulative pore volumes 0.800000.
Beginning of advection time step 5, cumulative pore volumes 1.000000.

Cell 1.

Using solution 1.	
Using pure phase assemblage 1.	Pure-phase assemblage after simulation 1.

-------------------------------Phase assemblage--------------------------------

                                                      Moles in assemblage
Phase               SI  log IAP  log K(T, P)   Initial       Final       Delta

Calcite          -9.24   -17.69     -8.45    0.000e+00           0   0.000e+00

-----------------------------Solution composition------------------------------

	Elements           Molality       Moles

	Al                1.066e-02   1.066e-02
	C                 1.044e-05   1.044e-05
	Ca                1.177e-02   1.177e-02
	Cd                5.277e-06   5.277e-06
	Cl                9.641e-03   9.641e-03
	Cu                2.436e-03   2.436e-03
	F                 1.624e-03   1.624e-03
	Fe                5.318e-02   5.318e-02
	K                 2.030e-04   2.030e-04
	Mg                1.603e-02   1.603e-02
	Mn                1.360e-03   1.360e-03
	Na                9.540e-03   9.540e-03
	S                 1.010e-01   1.010e-01
	Si                1.888e-03   1.888e-03
	Sr                1.522e-05   1.522e-05
	Zn                3.349e-04   3.349e-04

----------------------------Description of solution----------------------------

                                       pH  =   3.300      Charge balance
                                       pe  =   4.000      Adjusted to redox equilibrium
      Specific Conductance (µS/cm,  25°C)  = 11111
                          Density (g/cm³)  =   1.01098
                               Volume (L)  =   1.00384
                        Viscosity (mPa s)  =   0.91391
                        Activity of water  =   0.997
                 Ionic strength (mol/kgw)  =   2.155e-01
                       Mass of water (kg)  =   1.000e+00
                 Total alkalinity (eq/kg)  =  -1.676e-03
                       Total CO2 (mol/kg)  =   1.044e-05
                         Temperature (°C)  =  25.00
                  Electrical balance (eq)  =  -1.090e-14
 Percent error, 100*(Cat-|An|)/(Cat+|An|)  =  -0.00
                               Iterations  =   1
                                  Total H  = 1.110217e+02
                                  Total O  = 5.591786e+01

----------------------------Distribution of species----------------------------

                                               Log       Log       Log    mole V
   Species          Molality    Activity  Molality  Activity     Gamma   cm³/mol

   H+              6.307e-04   5.012e-04    -3.200    -3.300    -0.100      0.00
   OH-             2.873e-11   2.014e-11   -10.542   -10.696    -0.154     -3.47
   H2O             5.551e+01   9.972e-01     1.744    -0.001     0.000     18.07
Al            1.066e-02
   AlSO4+          5.820e-03   4.212e-03    -2.235    -2.376    -0.140     (0)  
   Al(SO4)2-       2.578e-03   1.866e-03    -2.589    -2.729    -0.140     (0)  
   AlF+2           1.375e-03   4.159e-04    -2.862    -3.381    -0.519     (0)  
   Al+3            7.521e-04   9.507e-05    -3.124    -4.022    -0.898    -40.79
   AlF2+           1.230e-04   9.119e-05    -3.910    -4.040    -0.130     (0)  
   AlOH+2          6.213e-06   1.879e-06    -5.207    -5.726    -0.519    -26.91
   AlHSO4+2        6.126e-07   1.872e-07    -6.213    -6.728    -0.515     (0)  
   AlF3            4.779e-07   5.022e-07    -6.321    -6.299     0.022     (0)  
   Al(OH)2+        3.951e-08   2.930e-08    -7.403    -7.533    -0.130     (0)  
   AlF4-           1.209e-10   8.747e-11    -9.918   -10.058    -0.140     (0)  
   Al(OH)3         8.173e-12   8.589e-12   -11.088   -11.066     0.022     (0)  
   Al(OH)4-        4.450e-14   3.221e-14   -13.352   -13.492    -0.140     (0)  
C(-4)         1.007e-39
   CH4             1.007e-39   1.058e-39   -38.997   -38.975     0.022     35.46
C(4)          1.044e-05
   CO2             1.041e-05   1.076e-05    -4.982    -4.968     0.014     34.79
   HCO3-           1.279e-08   9.522e-09    -7.893    -8.021    -0.128     26.02
   FeHCO3+         1.235e-08   9.179e-09    -7.908    -8.037    -0.129     (0)  
   CuHCO3+         2.271e-09   1.688e-09    -8.644    -8.773    -0.129     (0)  
   MnHCO3+         4.449e-10   3.265e-10    -9.352    -9.486    -0.134     (0)  
   MgHCO3+         3.707e-10   2.642e-10    -9.431    -9.578    -0.147      5.72
   ZnHCO3+         9.128e-11   6.786e-11   -10.040   -10.168    -0.129     (0)  
   NaHCO3          2.758e-11   2.973e-11   -10.559   -10.527     0.033     17.66
   (CO2)2          1.822e-12   1.882e-12   -11.740   -11.725     0.014     68.75
   CuCO3           1.611e-12   1.693e-12   -11.793   -11.771     0.022     (0)  
   SrHCO3+         5.193e-13   3.851e-13   -12.285   -12.414    -0.130     (0)  
   KHCO3           4.896e-13   5.145e-13   -12.310   -12.289     0.022     21.42
   CdHCO3+         4.676e-13   3.476e-13   -12.330   -12.459    -0.129     (0)  
   FeCO3           1.961e-13   2.060e-13   -12.708   -12.686     0.022     (0)  
   MnCO3           2.591e-14   2.723e-14   -13.586   -13.565     0.022     (0)  
   ZnCO3           9.577e-15   1.006e-14   -14.019   -13.997     0.022     (0)  
   CaCO3           3.289e-15   3.456e-15   -14.483   -14.461     0.022    -14.60
   CO3-2           2.946e-15   8.910e-16   -14.531   -15.050    -0.519     -2.52
   CaHCO3+         2.563e-15   1.928e-15   -14.591   -14.715    -0.124      9.88
   MgCO3           1.919e-15   2.016e-15   -14.717   -14.695     0.022    -17.09
   SrCO3           1.431e-18   1.504e-18   -17.844   -17.823     0.022    -14.13
   CdCO3           7.776e-19   8.171e-19   -18.109   -18.088     0.022     (0)  
   Cu(CO3)2-2      6.214e-24   1.899e-24   -23.207   -23.722    -0.515     (0)  
   Zn(CO3)2-2      6.274e-25   1.917e-25   -24.202   -24.717    -0.515     (0)  
   Cd(CO3)2-2      7.535e-30   2.302e-30   -29.123   -29.638    -0.515     (0)  
Ca            1.177e-02
   Ca+2            7.333e-03   2.309e-03    -2.135    -2.637    -0.502    -17.18
   CaSO4           4.414e-03   4.513e-03    -2.355    -2.346     0.010      7.22
   CaHSO4+         2.549e-05   1.895e-05    -4.594    -4.722    -0.129     (0)  
   CaOH+           1.026e-12   7.625e-13   -11.989   -12.118    -0.129     (0)  
   CaCO3           3.289e-15   3.456e-15   -14.483   -14.461     0.022    -14.60
   CaHCO3+         2.563e-15   1.928e-15   -14.591   -14.715    -0.124      9.88
Cd            5.277e-06
   Cd+2            3.778e-06   1.155e-06    -5.423    -5.938    -0.515    -17.87
   CdCl+           9.299e-07   6.914e-07    -6.032    -6.160    -0.129      7.72
   Cd(SO4)2-2      3.918e-07   1.105e-07    -6.407    -6.957    -0.550     37.39
   CdSO4           1.597e-07   1.678e-07    -6.797    -6.775     0.022     18.12
   CdCl2           1.720e-08   1.807e-08    -7.765    -7.743     0.022     23.14
   CdCl3-          9.618e-11   7.151e-11   -10.017   -10.146    -0.129     69.73
   CdF+            8.552e-12   6.359e-12   -11.068   -11.197    -0.129     (0)  
   CdOHCl          5.407e-13   5.682e-13   -12.267   -12.246     0.022     (0)  
   CdHCO3+         4.676e-13   3.476e-13   -12.330   -12.459    -0.129     (0)  
   CdOH+           2.570e-13   1.911e-13   -12.590   -12.719    -0.129     (0)  
   Cd2OH+3         1.556e-17   1.080e-18   -16.808   -17.966    -1.159     (0)  
   CdF2            6.649e-18   6.987e-18   -17.177   -17.156     0.022     (0)  
   CdCO3           7.776e-19   8.171e-19   -18.109   -18.088     0.022     (0)  
   Cd(OH)2         1.943e-20   2.041e-20   -19.712   -19.690     0.022     (0)  
   CdHS+           2.901e-26   2.157e-26   -25.537   -25.666    -0.129     (0)  
   Cd(CO3)2-2      7.535e-30   2.302e-30   -29.123   -29.638    -0.515     (0)  
   Cd(OH)3-        6.130e-30   4.557e-30   -29.213   -29.341    -0.129     (0)  
   Cd(OH)4-2       2.645e-40   0.000e+00   -39.578   -40.093    -0.515     (0)  
   Cd(HS)2         0.000e+00   0.000e+00   -49.226   -49.205     0.022     (0)  
   Cd(HS)3-        0.000e+00   0.000e+00   -76.795   -76.923    -0.129     (0)  
   Cd(HS)4-2       0.000e+00   0.000e+00  -104.117  -104.632    -0.515     (0)  
Cl            9.641e-03
   Cl-             8.832e-03   6.271e-03    -2.054    -2.203    -0.149     18.47
   CuCl2-          3.239e-04   2.309e-04    -3.490    -3.637    -0.147     (0)  
   FeCl+           1.122e-04   8.344e-05    -3.950    -4.079    -0.129     (0)  
   MnCl+           1.339e-05   9.830e-06    -4.873    -5.007    -0.134     -2.87
   CuCl+           8.378e-06   5.971e-06    -5.077    -5.224    -0.147      1.17
   CuCl3-2         7.908e-06   2.295e-06    -5.102    -5.639    -0.537     (0)  
   ZnCl+           1.341e-06   9.555e-07    -5.873    -6.020    -0.147    -14.42
   CdCl+           9.299e-07   6.914e-07    -6.032    -6.160    -0.129      7.72
   HCl             8.765e-07   1.083e-06    -6.057    -5.966     0.092     20.36
   MnCl2           2.560e-08   2.691e-08    -7.592    -7.570     0.022     85.89
   CuCl2           1.913e-08   2.011e-08    -7.718    -7.697     0.022     31.02
   CdCl2           1.720e-08   1.807e-08    -7.765    -7.743     0.022     23.14
   ZnCl2           5.970e-09   6.274e-09    -8.224    -8.202     0.022    102.03
   CdCl3-          9.618e-11   7.151e-11   -10.017   -10.146    -0.129     69.73
   MnCl3-          6.332e-11   4.647e-11   -10.198   -10.333    -0.134     44.30
   ZnCl3-          6.194e-11   4.414e-11   -10.208   -10.355    -0.147     15.72
   ZnOHCl          2.226e-11   2.339e-11   -10.653   -10.631     0.022     (0)  
   FeCl+2          6.008e-12   1.743e-12   -11.221   -11.759    -0.537     (0)  
   CuCl3-          6.277e-13   4.474e-13   -12.202   -12.349    -0.147     (0)  
   CdOHCl          5.407e-13   5.682e-13   -12.267   -12.246     0.022     (0)  
   ZnCl4-2         4.781e-13   1.387e-13   -12.320   -12.858    -0.537    147.49
   FeCl2+          6.654e-14   4.883e-14   -13.177   -13.311    -0.134     (0)  
   CuCl4-2         4.846e-17   1.406e-17   -16.315   -16.852    -0.537     (0)  
   FeCl3           2.914e-17   3.062e-17   -16.536   -16.514     0.022     (0)  
Cu(1)         3.594e-04
   CuCl2-          3.239e-04   2.309e-04    -3.490    -3.637    -0.147     (0)  
   Cu+             2.755e-05   1.857e-05    -4.560    -4.731    -0.171     (0)  
   CuCl3-2         7.908e-06   2.295e-06    -5.102    -5.639    -0.537     (0)  
Cu(2)         2.076e-03
   Cu+2            1.105e-03   3.538e-04    -2.957    -3.451    -0.495    -25.73
   CuSO4           9.630e-04   1.012e-03    -3.016    -2.995     0.022     13.09
   CuCl+           8.378e-06   5.971e-06    -5.077    -5.224    -0.147      1.17
   CuCl2           1.913e-08   2.011e-08    -7.718    -7.697     0.022     31.02
   CuOH+           9.875e-09   7.039e-09    -8.005    -8.153    -0.147     (0)  
   CuF+            3.788e-09   2.816e-09    -8.422    -8.550    -0.129     (0)  
   CuHCO3+         2.271e-09   1.688e-09    -8.644    -8.773    -0.129     (0)  
   Cu2(OH)2+2      7.095e-11   2.168e-11   -10.149   -10.664    -0.515     (0)  
   Cu(OH)2         2.784e-11   2.926e-11   -10.555   -10.534     0.022     (0)  
   CuCO3           1.611e-12   1.693e-12   -11.793   -11.771     0.022     (0)  
   CuCl3-          6.277e-13   4.474e-13   -12.202   -12.349    -0.147     (0)  
   CuCl4-2         4.846e-17   1.406e-17   -16.315   -16.852    -0.537     (0)  
   Cu(OH)3-        4.718e-21   3.508e-21   -20.326   -20.455    -0.129     (0)  
   Cu(CO3)2-2      6.214e-24   1.899e-24   -23.207   -23.722    -0.515     (0)  
   Cu(OH)4-2       4.557e-30   1.392e-30   -29.341   -29.856    -0.515     (0)  
   Cu(HS)3-        0.000e+00   0.000e+00   -67.118   -67.247    -0.129     (0)  
F             1.624e-03
   AlF+2           1.375e-03   4.159e-04    -2.862    -3.381    -0.519     (0)  
   AlF2+           1.230e-04   9.119e-05    -3.910    -4.040    -0.130     (0)  
   F-              6.242e-07   4.375e-07    -6.205    -6.359    -0.154     -0.91
   AlF3            4.779e-07   5.022e-07    -6.321    -6.299     0.022     (0)  
   HF              3.129e-07   3.288e-07    -6.505    -6.483     0.022     12.50
   MgF+            9.471e-08   6.855e-08    -7.024    -7.164    -0.140    -10.34
   FeF+            5.672e-08   4.217e-08    -7.246    -7.375    -0.129     (0)  
   CuF+            3.788e-09   2.816e-09    -8.422    -8.550    -0.129     (0)  
   MnF+            1.587e-09   1.165e-09    -8.799    -8.934    -0.134     (0)  
   NaF             1.513e-09   1.590e-09    -8.820    -8.799     0.022      7.26
   ZnF+            4.705e-10   3.498e-10    -9.327    -9.456    -0.129     (0)  
   AlF4-           1.209e-10   8.747e-11    -9.918   -10.058    -0.140     (0)  
   FeF+2           2.200e-11   6.383e-12   -10.658   -11.195    -0.537     (0)  
   CdF+            8.552e-12   6.359e-12   -11.068   -11.197    -0.129     (0)  
   HF2-            7.424e-13   5.520e-13   -12.129   -12.258    -0.129     22.47
   FeF2+           1.515e-13   1.112e-13   -12.820   -12.954    -0.134     (0)  
   FeF3            7.335e-17   7.708e-17   -16.135   -16.113     0.022     (0)  
   CdF2            6.649e-18   6.987e-18   -17.177   -17.156     0.022     (0)  
   SiF6-2          4.629e-24   1.343e-24   -23.335   -23.872    -0.537     44.20
Fe(2)         5.318e-02
   Fe+2            3.011e-02   9.640e-03    -1.521    -2.016    -0.495    -21.22
   FeSO4           2.285e-02   2.402e-02    -1.641    -1.619     0.022     30.28
   FeCl+           1.122e-04   8.344e-05    -3.950    -4.079    -0.129     (0)  
   FeHSO4+         1.064e-04   7.912e-05    -3.973    -4.102    -0.129     (0)  
   FeF+            5.672e-08   4.217e-08    -7.246    -7.375    -0.129     (0)  
   FeHCO3+         1.235e-08   9.179e-09    -7.908    -8.037    -0.129     (0)  
   FeOH+           8.264e-09   6.065e-09    -8.083    -8.217    -0.134     (0)  
   FeCO3           1.961e-13   2.060e-13   -12.708   -12.686     0.022     (0)  
   Fe(OH)2         9.773e-17   1.027e-16   -16.010   -15.988     0.022     (0)  
   Fe(OH)3-        1.034e-23   7.592e-24   -22.985   -23.120    -0.134     (0)  
   Fe(HS)2         0.000e+00   0.000e+00   -52.885   -52.863     0.022     (0)  
   Fe(HS)3-        0.000e+00   0.000e+00   -80.596   -80.725    -0.129     (0)  
Fe(3)         3.130e-09
   FeSO4+          1.927e-09   1.414e-09    -8.715    -8.849    -0.134     (0)  
   Fe(SO4)2-       5.830e-10   4.335e-10    -9.234    -9.363    -0.129     (0)  
   FeOH+2          4.076e-10   1.183e-10    -9.390    -9.927    -0.537     (0)  
   Fe(OH)2+        1.051e-10   7.791e-11    -9.979   -10.108    -0.130     (0)  
   Fe+3            7.282e-11   9.206e-12   -10.138   -11.036    -0.898     (0)  
   FeF+2           2.200e-11   6.383e-12   -10.658   -11.195    -0.537     (0)  
   FeHSO4+2        6.212e-12   1.898e-12   -11.207   -11.722    -0.515     (0)  
   FeCl+2          6.008e-12   1.743e-12   -11.221   -11.759    -0.537     (0)  
   FeF2+           1.515e-13   1.112e-13   -12.820   -12.954    -0.134     (0)  
   FeCl2+          6.654e-14   4.883e-14   -13.177   -13.311    -0.134     (0)  
   Fe(OH)3         1.900e-14   1.997e-14   -13.721   -13.700     0.022     (0)  
   FeF3            7.335e-17   7.708e-17   -16.135   -16.113     0.022     (0)  
   Fe2(OH)2+4      4.318e-17   3.764e-19   -16.365   -18.424    -2.060     (0)  
   FeCl3           2.914e-17   3.062e-17   -16.536   -16.514     0.022     (0)  
   Fe(OH)4-        4.886e-20   3.623e-20   -19.311   -19.441    -0.130     (0)  
   Fe3(OH)4+5      1.013e-23   6.127e-27   -22.995   -26.213    -3.218     (0)  
H(0)          3.376e-18
   H2              1.688e-18   1.778e-18   -17.773   -17.750     0.023     14.99
K             2.030e-04
   K+              1.713e-04   1.210e-04    -3.766    -3.917    -0.151      9.36
   KSO4-           3.164e-05   2.579e-05    -4.500    -4.589    -0.089     28.92
   KHCO3           4.896e-13   5.145e-13   -12.310   -12.289     0.022     21.42
Mg            1.603e-02
   MgSO4           7.877e-03   8.699e-03    -2.104    -2.061     0.043     -0.40
   Mg+2            7.031e-03   2.372e-03    -2.153    -2.625    -0.472    -20.90
   Mg(SO4)2-2      1.126e-03   4.014e-04    -2.948    -3.396    -0.448     45.29
   MgF+            9.471e-08   6.855e-08    -7.024    -7.164    -0.140    -10.34
   MgHCO3+         3.707e-10   2.642e-10    -9.431    -9.578    -0.147      5.72
   MgOH+           2.253e-11   1.713e-11   -10.647   -10.766    -0.119     (0)  
   MgCO3           1.919e-15   2.016e-15   -14.717   -14.695     0.022    -17.09
Mn(2)         1.360e-03
   Mn+2            1.202e-03   3.848e-04    -2.920    -3.415    -0.495    -17.47
   MnSO4           1.448e-04   1.379e-04    -3.839    -3.860    -0.021     17.15
   MnCl+           1.339e-05   9.830e-06    -4.873    -5.007    -0.134     -2.87
   MnCl2           2.560e-08   2.691e-08    -7.592    -7.570     0.022     85.89
   MnF+            1.587e-09   1.165e-09    -8.799    -8.934    -0.134     (0)  
   MnHCO3+         4.449e-10   3.265e-10    -9.352    -9.486    -0.134     (0)  
   MnCl3-          6.332e-11   4.647e-11   -10.198   -10.333    -0.134     44.30
   MnOH+           2.681e-11   1.968e-11   -10.572   -10.706    -0.134     (0)  
   MnCO3           2.591e-14   2.723e-14   -13.586   -13.565     0.022     (0)  
   Mn(OH)3-        6.544e-29   4.803e-29   -28.184   -28.318    -0.134     (0)  
Mn(3)         9.406e-25
   Mn+3            9.406e-25   1.189e-25   -24.027   -24.925    -0.898     (0)  
Na            9.540e-03
   Na+             8.488e-03   6.317e-03    -2.071    -2.199    -0.128     -0.91
   NaSO4-          1.052e-03   7.774e-04    -2.978    -3.109    -0.131     19.29
   Na2SO4          2.292e-09   2.395e-09    -8.640    -8.621     0.019     47.96
   NaF             1.513e-09   1.590e-09    -8.820    -8.799     0.022      7.26
   NaHCO3          2.758e-11   2.973e-11   -10.559   -10.527     0.033     17.66
O(0)          0.000e+00
   O2              0.000e+00   0.000e+00   -56.887   -56.865     0.022     30.40
S(-2)         3.428e-26
   CdHS+           2.901e-26   2.157e-26   -25.537   -25.666    -0.129     (0)  
   H2S             5.266e-27   5.534e-27   -26.278   -26.257     0.022     36.27
   HS-             1.802e-30   1.263e-30   -29.744   -29.899    -0.154     21.01
   S-2             1.049e-39   3.044e-40   -38.979   -39.517    -0.537     (0)  
   Zn(HS)2         0.000e+00   0.000e+00   -49.126   -49.104     0.022     (0)  
   Cd(HS)2         0.000e+00   0.000e+00   -49.226   -49.205     0.022     (0)  
   Fe(HS)2         0.000e+00   0.000e+00   -52.885   -52.863     0.022     (0)  
   (H2S)2          0.000e+00   0.000e+00   -53.814   -53.792     0.022     30.09
   Cu(HS)3-        0.000e+00   0.000e+00   -67.118   -67.247    -0.129     (0)  
   Cd(HS)3-        0.000e+00   0.000e+00   -76.795   -76.923    -0.129     (0)  
   Zn(HS)3-        0.000e+00   0.000e+00   -77.714   -77.843    -0.129     (0)  
   Fe(HS)3-        0.000e+00   0.000e+00   -80.596   -80.725    -0.129     (0)  
   Cd(HS)4-2       0.000e+00   0.000e+00  -104.117  -104.632    -0.515     (0)  
S(6)          1.010e-01
   SO4-2           4.925e-02   1.401e-02    -1.308    -1.854    -0.546     15.60
   FeSO4           2.285e-02   2.402e-02    -1.641    -1.619     0.022     30.28
   MgSO4           7.877e-03   8.699e-03    -2.104    -2.061     0.043     -0.40
   AlSO4+          5.820e-03   4.212e-03    -2.235    -2.376    -0.140     (0)  
   CaSO4           4.414e-03   4.513e-03    -2.355    -2.346     0.010      7.22
   Al(SO4)2-       2.578e-03   1.866e-03    -2.589    -2.729    -0.140     (0)  
   Mg(SO4)2-2      1.126e-03   4.014e-04    -2.948    -3.396    -0.448     45.29
   NaSO4-          1.052e-03   7.774e-04    -2.978    -3.109    -0.131     19.29
   CuSO4           9.630e-04   1.012e-03    -3.016    -2.995     0.022     13.09
   HSO4-           9.182e-04   6.827e-04    -3.037    -3.166    -0.129     40.67
   MnSO4           1.448e-04   1.379e-04    -3.839    -3.860    -0.021     17.15
   ZnSO4           1.373e-04   1.443e-04    -3.862    -3.841     0.022      6.48
   FeHSO4+         1.064e-04   7.912e-05    -3.973    -4.102    -0.129     (0)  
   KSO4-           3.164e-05   2.579e-05    -4.500    -4.589    -0.089     28.92
   CaHSO4+         2.549e-05   1.895e-05    -4.594    -4.722    -0.129     (0)  
   SrSO4           6.873e-06   7.222e-06    -5.163    -5.141     0.022     24.24
   Zn(SO4)2-2      1.104e-06   1.570e-07    -5.957    -6.804    -0.847     45.31
   AlHSO4+2        6.126e-07   1.872e-07    -6.213    -6.728    -0.515     (0)  
   Cd(SO4)2-2      3.918e-07   1.105e-07    -6.407    -6.957    -0.550     37.39
   CdSO4           1.597e-07   1.678e-07    -6.797    -6.775     0.022     18.12
   Na2SO4          2.292e-09   2.395e-09    -8.640    -8.621     0.019     47.96
   FeSO4+          1.927e-09   1.414e-09    -8.715    -8.849    -0.134     (0)  
   Fe(SO4)2-       5.830e-10   4.335e-10    -9.234    -9.363    -0.129     (0)  
   FeHSO4+2        6.212e-12   1.898e-12   -11.207   -11.722    -0.515     (0)  
Si            1.888e-03
   H4SiO4          1.888e-03   1.984e-03    -2.724    -2.703     0.022     52.08
   H3SiO4-         8.188e-10   5.836e-10    -9.087    -9.234    -0.147     28.38
   H2SiO4-2        2.619e-19   7.921e-20   -18.582   -19.101    -0.519     (0)  
   SiF6-2          4.629e-24   1.343e-24   -23.335   -23.872    -0.537     44.20
Sr            1.522e-05
   Sr+2            8.350e-06   2.644e-06    -5.078    -5.578    -0.499    -17.00
   SrSO4           6.873e-06   7.222e-06    -5.163    -5.141     0.022     24.24
   SrHCO3+         5.193e-13   3.851e-13   -12.285   -12.414    -0.130     (0)  
   SrOH+           3.676e-16   2.698e-16   -15.435   -15.569    -0.134     (0)  
   SrCO3           1.431e-18   1.504e-18   -17.844   -17.823     0.022    -14.13
Zn            3.349e-04
   Zn+2            1.951e-04   5.661e-05    -3.710    -4.247    -0.537    -24.46
   ZnSO4           1.373e-04   1.443e-04    -3.862    -3.841     0.022      6.48
   ZnCl+           1.341e-06   9.555e-07    -5.873    -6.020    -0.147    -14.42
   Zn(SO4)2-2      1.104e-06   1.570e-07    -5.957    -6.804    -0.847     45.31
   ZnCl2           5.970e-09   6.274e-09    -8.224    -8.202     0.022    102.03
   ZnF+            4.705e-10   3.498e-10    -9.327    -9.456    -0.129     (0)  
   ZnOH+           1.661e-10   1.235e-10    -9.780    -9.908    -0.129     (0)  
   ZnHCO3+         9.128e-11   6.786e-11   -10.040   -10.168    -0.129     (0)  
   ZnCl3-          6.194e-11   4.414e-11   -10.208   -10.355    -0.147     15.72
   ZnOHCl          2.226e-11   2.339e-11   -10.653   -10.631     0.022     (0)  
   ZnCl4-2         4.781e-13   1.387e-13   -12.320   -12.858    -0.537    147.49
   ZnCO3           9.577e-15   1.006e-14   -14.019   -13.997     0.022     (0)  
   Zn(OH)2         2.685e-15   2.821e-15   -14.571   -14.550     0.022     (0)  
   Zn(OH)3-        2.387e-23   1.775e-23   -22.622   -22.751    -0.129     (0)  
   Zn(CO3)2-2      6.274e-25   1.917e-25   -24.202   -24.717    -0.515     (0)  
   Zn(OH)4-2       1.832e-32   5.597e-33   -31.737   -32.252    -0.515     (0)  
   Zn(HS)2         0.000e+00   0.000e+00   -49.126   -49.104     0.022     (0)  
   Zn(HS)3-        0.000e+00   0.000e+00   -77.714   -77.843    -0.129     (0)  

------------------------------Saturation indices-------------------------------

  Phase               SI** log IAP   log K(298 K,   1 atm)

  Al(OH)3(a)       -4.93      5.87   10.80  Al(OH)3
  Albite           -5.79    -23.79  -18.00  NaAlSi3O8
  Alunite           1.50      0.10   -1.40  KAl3(SO4)2(OH)6
  Anhydrite        -0.18     -4.49   -4.31  CaSO4
  Anorthite       -15.30    -35.02  -19.71  CaAl2Si2O8
  Aragonite        -9.35    -17.69   -8.34  CaCO3
  Arcanite         -7.81     -9.69   -1.88  K2SO4
  Ca-Montmorillonite  -3.35    -48.37  -45.03  Ca0.165Al2.33Si3.67O10(OH)2
  Calcite          -9.24    -17.69   -8.45  CaCO3
  Cd(OH)2         -12.99      0.66   13.65  Cd(OH)2
  CdSiO3          -11.10     -2.04    9.06  CdSiO3
  CdSO4            -7.69     -7.79   -0.10  CdSO4
  Celestite        -0.77     -7.43   -6.66  SrSO4
  CH4(g)          -36.17    -38.98   -2.80  CH4
  Chalcedony        0.85     -2.70   -3.55  SiO2
  Chlorite(14A)   -44.86     23.52   68.38  Mg5Al2Si3O10(OH)8
  Chrysotile      -25.68      6.52   32.20  Mg3Si2O5(OH)4
  CO2(g)           -3.50     -4.97   -1.47  CO2
  Dolomite        -18.28    -35.36  -17.08  CaMg(CO3)2
  Epsomite         -2.75     -4.49   -1.74  MgSO4:7H2O
  Fe(OH)3(a)       -6.03     -1.14    4.89  Fe(OH)3
  FeS(ppt)        -24.70    -28.61   -3.92  FeS
  Fluorite         -4.75    -15.35  -10.60  CaF2
  Gibbsite         -2.24      5.87    8.11  Al(OH)3
  Goethite         -0.14     -1.14   -1.00  FeOOH
  Gypsum            0.06     -4.49   -4.55  CaSO4:2H2O
  H2(g)           -14.65    -17.75   -3.10  H2
  H2O(g)           -1.50     -0.00    1.50  H2O
  H2S(g)          -25.26    -33.20   -7.94  H2S
  Halite           -5.97     -4.40    1.57  NaCl
  Hausmannite     -36.88     24.15   61.03  Mn3O4
  Hematite          1.73     -2.28   -4.01  Fe2O3
  Hexahydrite      -2.92     -4.49   -1.57  MgSO4:6H2O
  Illite           -7.18    -47.44  -40.27  K0.6Mg0.25Al2.3Si3.5O10(OH)2
  Jarosite-K      -11.73    -20.94   -9.21  KFe3(SO4)2(OH)6
  K-feldspar       -4.93    -25.51  -20.57  KAlSi3O8
  K-mica           -3.79      8.91   12.70  KAl3Si3O10(OH)2
  Kaolinite        -1.09      6.35    7.43  Al2Si2O5(OH)4
  Kieserite        -3.32     -4.48   -1.16  MgSO4:H2O
  Mackinawite     -23.97    -28.61   -4.65  FeS
  Manganite       -14.86     10.48   25.34  MnOOH
  Melanterite      -1.67     -3.88   -2.21  FeSO4:7H2O
  Mirabilite       -5.56     -6.26   -0.71  Na2SO4:10H2O
  O2(g)           -53.97    -56.87   -2.89  O2
  Otavite          -8.89    -20.99  -12.10  CdCO3
  Pyrite          -28.73    -47.21  -18.48  FeS2
  Pyrochroite     -12.02      3.18   15.20  Mn(OH)2
  Pyrolusite      -23.60     17.78   41.38  MnO2:H2O
  Quartz            1.28     -2.70   -3.98  SiO2
  Rhodochrosite    -7.33    -18.46  -11.13  MnCO3
  Sepiolite       -15.92     -0.16   15.76  Mg2Si3O7.5OH:3H2O
  Sepiolite(d)    -18.82     -0.16   18.66  Mg2Si3O7.5OH:3H2O
  Siderite         -6.18    -17.07  -10.89  FeCO3
  SiO2(a)           0.01     -2.70   -2.71  SiO2
  Smithsonite      -9.30    -19.30  -10.00  ZnCO3
  Sphalerite      -19.23    -30.85  -11.62  ZnS
  Strontianite    -11.36    -20.63   -9.27  SrCO3
  Sulfur          -16.54    -11.66    4.88  S
  Sylvite          -7.02     -6.12    0.90  KCl
  Talc            -20.28      1.12   21.40  Mg3Si4O10(OH)2
  Thenardite       -6.90     -6.25    0.65  Na2SO4
  Willemite       -13.33      2.00   15.33  Zn2SiO4
  Zn(OH)2(e)       -9.15      2.35   11.50  Zn(OH)2

**For a gas, SI = log10(fugacity). Fugacity = pressure * phi / 1 atm.
  For ideal gases, phi = 1.


Cell 2.

Using solution 2.	Solution after simulation 1.
Using pure phase assemblage 2.	Pure-phase assemblage after simulation 1.

-------------------------------Phase assemblage--------------------------------

                                                      Moles in assemblage
Phase               SI  log IAP  log K(T, P)   Initial       Final       Delta

Calcite           0.00    -8.45     -8.45    7.484e-02   6.184e-02  -1.300e-02

-----------------------------Solution composition------------------------------

	Elements           Molality       Moles

	Al                1.066e-02   1.066e-02
	C                 2.202e-02   2.201e-02
	Ca                3.378e-02   3.377e-02
	Cd                5.279e-06   5.277e-06
	Cl                9.644e-03   9.641e-03
	Cu                2.436e-03   2.436e-03
	F                 1.624e-03   1.624e-03
	Fe                5.320e-02   5.318e-02
	K                 2.030e-04   2.030e-04
	Mg                1.604e-02   1.603e-02
	Mn                1.360e-03   1.360e-03
	Na                9.543e-03   9.540e-03
	S                 1.011e-01   1.010e-01
	Si                1.888e-03   1.888e-03
	Sr                1.523e-05   1.522e-05
	Zn                3.350e-04   3.349e-04

----------------------------Description of solution----------------------------

                                       pH  =   6.314      Charge balance
                                       pe  =   3.579      Adjusted to redox equilibrium
      Specific Conductance (µS/cm,  25°C)  = 12923
                          Density (g/cm³)  =   1.01319
                               Volume (L)  =   1.00383
                        Viscosity (mPa s)  =   0.92165
                        Activity of water  =   0.996
                 Ionic strength (mol/kgw)  =   2.487e-01
                       Mass of water (kg)  =   9.996e-01
                 Total alkalinity (eq/kg)  =   4.225e-02
                       Total CO2 (mol/kg)  =   2.202e-02
                         Temperature (°C)  =  25.00
                  Electrical balance (eq)  =   1.787e-12
[...]
   CdHCO3+         4.676e-13   3.476e-13   -12.330   -12.459    -0.129     (0)  
   CdOH+           2.570e-13   1.911e-13   -12.590   -12.719    -0.129     (0)  
   Cd2OH+3         1.556e-17   1.080e-18   -16.808   -17.966    -1.159     (0)  
   CdF2            6.649e-18   6.987e-18   -17.177   -17.156     0.022     (0)  
   CdCO3           7.776e-19   8.171e-19   -18.109   -18.088     0.022     (0)  
   Cd(OH)2         1.943e-20   2.041e-20   -19.712   -19.690     0.022     (0)  
   CdHS+           2.901e-26   2.157e-26   -25.537   -25.666    -0.129     (0)  
   Cd(CO3)2-2      7.535e-30   2.302e-30   -29.123   -29.638    -0.515     (0)  
   Cd(OH)3-        6.130e-30   4.557e-30   -29.213   -29.341    -0.129     (0)  
   Cd(OH)4-2       2.645e-40   0.000e+00   -39.578   -40.093    -0.515     (0)  
   Cd(HS)2         0.000e+00   0.000e+00   -49.226   -49.205     0.022     (0)  
   Cd(HS)3-        0.000e+00   0.000e+00   -76.795   -76.923    -0.129     (0)  
   Cd(HS)4-2       0.000e+00   0.000e+00  -104.117  -104.632    -0.515     (0)  
Cl            9.641e-03
   Cl-             8.832e-03   6.271e-03    -2.054    -2.203    -0.149     18.47
   CuCl2-          3.239e-04   2.309e-04    -3.490    -3.637    -0.147     (0)  
   FeCl+           1.122e-04   8.344e-05    -3.950    -4.079    -0.129     (0)  
   MnCl+           1.339e-05   9.830e-06    -4.873    -5.007    -0.134     -2.87
   CuCl+           8.378e-06   5.971e-06    -5.077    -5.224    -0.147      1.17
   CuCl3-2         7.908e-06   2.295e-06    -5.102    -5.639    -0.537     (0)  
   ZnCl+           1.341e-06   9.555e-07    -5.873    -6.020    -0.147    -14.42
   CdCl+           9.299e-07   6.914e-07    -6.032    -6.160    -0.129      7.72
   HCl             8.765e-07   1.083e-06    -6.057    -5.966     0.092     20.36
   MnCl2           2.560e-08   2.691e-08    -7.592    -7.570     0.022     85.89
   CuCl2           1.913e-08   2.011e-08    -7.718    -7.697     0.022     31.02
   CdCl2           1.720e-08   1.807e-08    -7.765    -7.743     0.022     23.14
   ZnCl2           5.970e-09   6.274e-09    -8.224    -8.202     0.022    102.03
   CdCl3-          9.618e-11   7.151e-11   -10.017   -10.146    -0.129     69.73
   MnCl3-          6.332e-11   4.647e-11   -10.198   -10.333    -0.134     44.30
   ZnCl3-          6.194e-11   4.414e-11   -10.208   -10.355    -0.147     15.72
   ZnOHCl          2.226e-11   2.339e-11   -10.653   -10.631     0.022     (0)  
   FeCl+2          6.008e-12   1.743e-12   -11.221   -11.759    -0.537     (0)  
   CuCl3-          6.277e-13   4.474e-13   -12.202   -12.349    -0.147     (0)  
   CdOHCl          5.407e-13   5.682e-13   -12.267   -12.246     0.022     (0)  
   ZnCl4-2         4.781e-13   1.387e-13   -12.320   -12.858    -0.537    147.49
   FeCl2+          6.654e-14   4.883e-14   -13.177   -13.311    -0.134     (0)  
   CuCl4-2         4.846e-17   1.406e-17   -16.315   -16.852    -0.537     (0)  
   FeCl3           2.914e-17   3.062e-17   -16.536   -16.514     0.022     (0)  
Cu(1)         3.594e-04
   CuCl2-          3.239e-04   2.309e-04    -3.490    -3.637    -0.147     (0)  
   Cu+             2.755e-05   1.857e-05    -4.560    -4.731    -0.171     (0)  
   CuCl3-2         7.908e-06   2.295e-06    -5.102    -5.639    -0.537     (0)  
Cu(2)         2.076e-03
   Cu+2            1.105e-03   3.538e-04    -2.957    -3.451    -0.495    -25.73
   CuSO4           9.630e-04   1.012e-03    -3.016    -2.995     0.022     13.09
   CuCl+           8.378e-06   5.971e-06    -5.077    -5.224    -0.147      1.17
   CuCl2           1.913e-08   2.011e-08    -7.718    -7.697     0.022     31.02
   CuOH+           9.875e-09   7.039e-09    -8.005    -8.153    -0.147     (0)  
   CuF+            3.788e-09   2.816e-09    -8.422    -8.550    -0.129     (0)  
   CuHCO3+         2.271e-09   1.688e-09    -8.644    -8.773    -0.129     (0)  
   Cu2(OH)2+2      7.095e-11   2.168e-11   -10.149   -10.664    -0.515     (0)  
   Cu(OH)2         2.784e-11   2.926e-11   -10.555   -10.534     0.022     (0)  
   CuCO3           1.611e-12   1.693e-12   -11.793   -11.771     0.022     (0)  
   CuCl3-          6.277e-13   4.474e-13   -12.202   -12.349    -0.147     (0)  
   CuCl4-2         4.846e-17   1.406e-17   -16.315   -16.852    -0.537     (0)  
   Cu(OH)3-        4.718e-21   3.508e-21   -20.326   -20.455    -0.129     (0)  
   Cu(CO3)2-2      6.214e-24   1.899e-24   -23.207   -23.722    -0.515     (0)  
   Cu(OH)4-2       4.557e-30   1.392e-30   -29.341   -29.856    -0.515     (0)  
   Cu(HS)3-        0.000e+00   0.000e+00   -67.118   -67.247    -0.129     (0)  
F             1.624e-03
   AlF+2           1.375e-03   4.159e-04    -2.862    -3.381    -0.519     (0)  
   AlF2+           1.230e-04   9.119e-05    -3.910    -4.040    -0.130     (0)  
   F-              6.242e-07   4.375e-07    -6.205    -6.359    -0.154     -0.91
   AlF3            4.779e-07   5.022e-07    -6.321    -6.299     0.022     (0)  
   HF              3.129e-07   3.288e-07    -6.505    -6.483     0.022     12.50
   MgF+            9.471e-08   6.855e-08    -7.024    -7.164    -0.140    -10.34
   FeF+            5.672e-08   4.217e-08    -7.246    -7.375    -0.129     (0)  
   CuF+            3.788e-09   2.816e-09    -8.422    -8.550    -0.129     (0)  
   MnF+            1.587e-09   1.165e-09    -8.799    -8.934    -0.134     (0)  
   NaF             1.513e-09   1.590e-09    -8.820    -8.799     0.022      7.26
   ZnF+            4.705e-10   3.498e-10    -9.327    -9.456    -0.129     (0)  
   AlF4-           1.209e-10   8.747e-11    -9.918   -10.058    -0.140     (0)  
   FeF+2           2.200e-11   6.383e-12   -10.658   -11.195    -0.537     (0)  
   CdF+            8.552e-12   6.359e-12   -11.068   -11.197    -0.129     (0)  
   HF2-            7.424e-13   5.520e-13   -12.129   -12.258    -0.129     22.47
   FeF2+           1.515e-13   1.112e-13   -12.820   -12.954    -0.134     (0)  
   FeF3            7.335e-17   7.708e-17   -16.135   -16.113     0.022     (0)  
   CdF2            6.649e-18   6.987e-18   -17.177   -17.156     0.022     (0)  
   SiF6-2          4.629e-24   1.343e-24   -23.335   -23.872    -0.537     44.20
Fe(2)         5.318e-02
   Fe+2            3.011e-02   9.640e-03    -1.521    -2.016    -0.495    -21.22
   FeSO4           2.285e-02   2.402e-02    -1.641    -1.619     0.022     30.28
   FeCl+           1.122e-04   8.344e-05    -3.950    -4.079    -0.129     (0)  
   FeHSO4+         1.064e-04   7.912e-05    -3.973    -4.102    -0.129     (0)  
   FeF+            5.672e-08   4.217e-08    -7.246    -7.375    -0.129     (0)  
   FeHCO3+         1.235e-08   9.179e-09    -7.908    -8.037    -0.129     (0)  
   FeOH+           8.264e-09   6.065e-09    -8.083    -8.217    -0.134     (0)  
   FeCO3           1.961e-13   2.060e-13   -12.708   -12.686     0.022     (0)  
   Fe(OH)2         9.773e-17   1.027e-16   -16.010   -15.988     0.022     (0)  
   Fe(OH)3-        1.034e-23   7.592e-24   -22.985   -23.120    -0.134     (0)  
   Fe(HS)2         0.000e+00   0.000e+00   -52.885   -52.863     0.022     (0)  
   Fe(HS)3-        0.000e+00   0.000e+00   -80.596   -80.725    -0.129     (0)  
Fe(3)         3.130e-09
   FeSO4+          1.927e-09   1.414e-09    -8.715    -8.849    -0.134     (0)  
   Fe(SO4)2-       5.830e-10   4.335e-10    -9.234    -9.363    -0.129     (0)  
   FeOH+2          4.076e-10   1.183e-10    -9.390    -9.927    -0.537     (0)  
   Fe(OH)2+        1.051e-10   7.791e-11    -9.979   -10.108    -0.130     (0)  
   Fe+3            7.282e-11   9.206e-12   -10.138   -11.036    -0.898     (0)  
   FeF+2           2.200e-11   6.383e-12   -10.658   -11.195    -0.537     (0)  
   FeHSO4+2        6.212e-12   1.898e-12   -11.207   -11.722    -0.515     (0)  
   FeCl+2          6.008e-12   1.743e-12   -11.221   -11.759    -0.537     (0)  
   FeF2+           1.515e-13   1.112e-13   -12.820   -12.954    -0.134     (0)  
   FeCl2+          6.654e-14   4.883e-14   -13.177   -13.311    -0.134     (0)  
   Fe(OH)3         1.900e-14   1.997e-14   -13.721   -13.700     0.022     (0)  
   FeF3            7.335e-17   7.708e-17   -16.135   -16.113     0.022     (0)  
   Fe2(OH)2+4      4.318e-17   3.764e-19   -16.365   -18.424    -2.060     (0)  
   FeCl3           2.914e-17   3.062e-17   -16.536   -16.514     0.022     (0)  
   Fe(OH)4-        4.886e-20   3.623e-20   -19.311   -19.441    -0.130     (0)  
   Fe3(OH)4+5      1.013e-23   6.127e-27   -22.995   -26.213    -3.218     (0)  
H(0)          3.376e-18
   H2              1.688e-18   1.778e-18   -17.773   -17.750     0.023     14.99
K             2.030e-04
   K+              1.713e-04   1.210e-04    -3.766    -3.917    -0.151      9.36
   KSO4-           3.164e-05   2.579e-05    -4.500    -4.589    -0.089     28.92
   KHCO3           4.896e-13   5.145e-13   -12.310   -12.289     0.022     21.42
Mg            1.603e-02
   MgSO4           7.877e-03   8.699e-03    -2.104    -2.061     0.043     -0.40
   Mg+2            7.031e-03   2.372e-03    -2.153    -2.625    -0.472    -20.90
   Mg(SO4)2-2      1.126e-03   4.014e-04    -2.948    -3.396    -0.448     45.29
   MgF+            9.471e-08   6.855e-08    -7.024    -7.164    -0.140    -10.34
   MgHCO3+         3.707e-10   2.642e-10    -9.431    -9.578    -0.147      5.72
   MgOH+           2.253e-11   1.713e-11   -10.647   -10.766    -0.119     (0)  
   MgCO3           1.919e-15   2.016e-15   -14.717   -14.695     0.022    -17.09
Mn(2)         1.360e-03
   Mn+2            1.202e-03   3.848e-04    -2.920    -3.415    -0.495    -17.47
   MnSO4           1.448e-04   1.379e-04    -3.839    -3.860    -0.021     17.15
   MnCl+           1.339e-05   9.830e-06    -4.873    -5.007    -0.134     -2.87
   MnCl2           2.560e-08   2.691e-08    -7.592    -7.570     0.022     85.89
   MnF+            1.587e-09   1.165e-09    -8.799    -8.934    -0.134     (0)  
   MnHCO3+         4.449e-10   3.265e-10    -9.352    -9.486    -0.134     (0)  
   MnCl3-          6.332e-11   4.647e-11   -10.198   -10.333    -0.134     44.30
   MnOH+           2.681e-11   1.968e-11   -10.572   -10.706    -0.134     (0)  
   MnCO3           2.591e-14   2.723e-14   -13.586   -13.565     0.022     (0)  
   Mn(OH)3-        6.544e-29   4.803e-29   -28.184   -28.318    -0.134     (0)  
Mn(3)         9.406e-25
   Mn+3            9.406e-25   1.189e-25   -24.027   -24.925    -0.898     (0)  
Na            9.540e-03
   Na+             8.488e-03   6.317e-03    -2.071    -2.199    -0.128     -0.91
   NaSO4-          1.052e-03   7.774e-04    -2.978    -3.109    -0.131     19.29
   Na2SO4          2.292e-09   2.395e-09    -8.640    -8.621     0.019     47.96
   NaF             1.513e-09   1.590e-09    -8.820    -8.799     0.022      7.26
   NaHCO3          2.758e-11   2.973e-11   -10.559   -10.527     0.033     17.66
O(0)          0.000e+00
   O2              0.000e+00   0.000e+00   -56.887   -56.865     0.022     30.40
S(-2)         3.428e-26
   CdHS+           2.901e-26   2.157e-26   -25.537   -25.666    -0.129     (0)  
   H2S             5.266e-27   5.534e-27   -26.278   -26.257     0.022     36.27
   HS-             1.802e-30   1.263e-30   -29.744   -29.899    -0.154     21.01
   S-2             1.049e-39   3.044e-40   -38.979   -39.517    -0.537     (0)  
   Zn(HS)2         0.000e+00   0.000e+00   -49.126   -49.104     0.022     (0)  
   Cd(HS)2         0.000e+00   0.000e+00   -49.226   -49.205     0.022     (0)  
   Fe(HS)2         0.000e+00   0.000e+00   -52.885   -52.863     0.022     (0)  
   (H2S)2          0.000e+00   0.000e+00   -53.814   -53.792     0.022     30.09
   Cu(HS)3-        0.000e+00   0.000e+00   -67.118   -67.247    -0.129     (0)  
   Cd(HS)3-        0.000e+00   0.000e+00   -76.795   -76.923    -0.129     (0)  
   Zn(HS)3-        0.000e+00   0.000e+00   -77.714   -77.843    -0.129     (0)  
   Fe(HS)3-        0.000e+00   0.000e+00   -80.596   -80.725    -0.129     (0)  
   Cd(HS)4-2       0.000e+00   0.000e+00  -104.117  -104.632    -0.515     (0)  
S(6)          1.010e-01
   SO4-2           4.925e-02   1.401e-02    -1.308    -1.854    -0.546     15.60
   FeSO4           2.285e-02   2.402e-02    -1.641    -1.619     0.022     30.28
   MgSO4           7.877e-03   8.699e-03    -2.104    -2.061     0.043     -0.40
   AlSO4+          5.820e-03   4.212e-03    -2.235    -2.376    -0.140     (0)  
   CaSO4           4.414e-03   4.513e-03    -2.355    -2.346     0.010      7.22
   Al(SO4)2-       2.578e-03   1.866e-03    -2.589    -2.729    -0.140     (0)  
   Mg(SO4)2-2      1.126e-03   4.014e-04    -2.948    -3.396    -0.448     45.29
   NaSO4-          1.052e-03   7.774e-04    -2.978    -3.109    -0.131     19.29
   CuSO4           9.630e-04   1.012e-03    -3.016    -2.995     0.022     13.09
   HSO4-           9.182e-04   6.827e-04    -3.037    -3.166    -0.129     40.67
   MnSO4           1.448e-04   1.379e-04    -3.839    -3.860    -0.021     17.15
   ZnSO4           1.373e-04   1.443e-04    -3.862    -3.841     0.022      6.48
   FeHSO4+         1.064e-04   7.912e-05    -3.973    -4.102    -0.129     (0)  
   KSO4-           3.164e-05   2.579e-05    -4.500    -4.589    -0.089     28.92
   CaHSO4+         2.549e-05   1.895e-05    -4.594    -4.722    -0.129     (0)  
   SrSO4           6.873e-06   7.222e-06    -5.163    -5.141     0.022     24.24
   Zn(SO4)2-2      1.104e-06   1.570e-07    -5.957    -6.804    -0.847     45.31
   AlHSO4+2        6.126e-07   1.872e-07    -6.213    -6.728    -0.515     (0)  
   Cd(SO4)2-2      3.918e-07   1.105e-07    -6.407    -6.957    -0.550     37.39
   CdSO4           1.597e-07   1.678e-07    -6.797    -6.775     0.022     18.12
   Na2SO4          2.292e-09   2.395e-09    -8.640    -8.621     0.019     47.96
   FeSO4+          1.927e-09   1.414e-09    -8.715    -8.849    -0.134     (0)  
   Fe(SO4)2-       5.830e-10   4.335e-10    -9.234    -9.363    -0.129     (0)  
   FeHSO4+2        6.212e-12   1.898e-12   -11.207   -11.722    -0.515     (0)  
Si            1.888e-03
   H4SiO4          1.888e-03   1.984e-03    -2.724    -2.703     0.022     52.08
   H3SiO4-         8.188e-10   5.836e-10    -9.087    -9.234    -0.147     28.38
   H2SiO4-2        2.619e-19   7.921e-20   -18.582   -19.101    -0.519     (0)  
   SiF6-2          4.629e-24   1.343e-24   -23.335   -23.872    -0.537     44.20
Sr            1.522e-05
   Sr+2            8.350e-06   2.644e-06    -5.078    -5.578    -0.499    -17.00
   SrSO4           6.873e-06   7.222e-06    -5.163    -5.141     0.022     24.24
   SrHCO3+         5.193e-13   3.851e-13   -12.285   -12.414    -0.130     (0)  
   SrOH+           3.676e-16   2.698e-16   -15.435   -15.569    -0.134     (0)  
   SrCO3           1.431e-18   1.504e-18   -17.844   -17.823     0.022    -14.13
Zn            3.349e-04
   Zn+2            1.951e-04   5.661e-05    -3.710    -4.247    -0.537    -24.46
   ZnSO4           1.373e-04   1.443e-04    -3.862    -3.841     0.022      6.48
   ZnCl+           1.341e-06   9.555e-07    -5.873    -6.020    -0.147    -14.42
   Zn(SO4)2-2      1.104e-06   1.570e-07    -5.957    -6.804    -0.847     45.31
   ZnCl2           5.970e-09   6.274e-09    -8.224    -8.202     0.022    102.03
   ZnF+            4.705e-10   3.498e-10    -9.327    -9.456    -0.129     (0)  
   ZnOH+           1.661e-10   1.235e-10    -9.780    -9.908    -0.129     (0)  
   ZnHCO3+         9.128e-11   6.786e-11   -10.040   -10.168    -0.129     (0)  
   ZnCl3-          6.194e-11   4.414e-11   -10.208   -10.355    -0.147     15.72
   ZnOHCl          2.226e-11   2.339e-11   -10.653   -10.631     0.022     (0)  
   ZnCl4-2         4.781e-13   1.387e-13   -12.320   -12.858    -0.537    147.49
   ZnCO3           9.577e-15   1.006e-14   -14.019   -13.997     0.022     (0)  
   Zn(OH)2         2.685e-15   2.821e-15   -14.571   -14.550     0.022     (0)  
   Zn(OH)3-        2.387e-23   1.775e-23   -22.622   -22.751    -0.129     (0)  
   Zn(CO3)2-2      6.274e-25   1.917e-25   -24.202   -24.717    -0.515     (0)  
   Zn(OH)4-2       1.832e-32   5.597e-33   -31.737   -32.252    -0.515     (0)  
   Zn(HS)2         0.000e+00   0.000e+00   -49.126   -49.104     0.022     (0)  
   Zn(HS)3-        0.000e+00   0.000e+00   -77.714   -77.843    -0.129     (0)  

------------------------------Saturation indices-------------------------------

  Phase               SI** log IAP   log K(298 K,   1 atm)

  Al(OH)3(a)       -4.93      5.87   10.80  Al(OH)3
  Albite           -5.79    -23.79  -18.00  NaAlSi3O8
  Alunite           1.50      0.10   -1.40  KAl3(SO4)2(OH)6
  Anhydrite        -0.18     -4.49   -4.31  CaSO4
  Anorthite       -15.30    -35.02  -19.71  CaAl2Si2O8
  Aragonite        -9.35    -17.69   -8.34  CaCO3
  Arcanite         -7.81     -9.69   -1.88  K2SO4
  Ca-Montmorillonite  -3.35    -48.37  -45.03  Ca0.165Al2.33Si3.67O10(OH)2
  Calcite          -9.24    -17.69   -8.45  CaCO3
  Cd(OH)2         -12.99      0.66   13.65  Cd(OH)2
  CdSiO3          -11.10     -2.04    9.06  CdSiO3
  CdSO4            -7.69     -7.79   -0.10  CdSO4
  Celestite        -0.77     -7.43   -6.66  SrSO4
  CH4(g)          -36.17    -38.98   -2.80  CH4
  Chalcedony        0.85     -2.70   -3.55  SiO2
  Chlorite(14A)   -44.86     23.52   68.38  Mg5Al2Si3O10(OH)8
  Chrysotile      -25.68      6.52   32.20  Mg3Si2O5(OH)4
  CO2(g)           -3.50     -4.97   -1.47  CO2
  Dolomite        -18.28    -35.36  -17.08  CaMg(CO3)2
  Epsomite         -2.75     -4.49   -1.74  MgSO4:7H2O
  Fe(OH)3(a)       -6.03     -1.14    4.89  Fe(OH)3
  FeS(ppt)        -24.70    -28.61   -3.92  FeS
  Fluorite         -4.75    -15.35  -10.60  CaF2
  Gibbsite         -2.24      5.87    8.11  Al(OH)3
  Goethite         -0.14     -1.14   -1.00  FeOOH
  Gypsum            0.06     -4.49   -4.55  CaSO4:2H2O
  H2(g)           -14.65    -17.75   -3.10  H2
  H2O(g)           -1.50     -0.00    1.50  H2O
  H2S(g)          -25.26    -33.20   -7.94  H2S
  Halite           -5.97     -4.40    1.57  NaCl
  Hausmannite     -36.88     24.15   61.03  Mn3O4
  Hematite          1.73     -2.28   -4.01  Fe2O3
  Hexahydrite      -2.92     -4.49   -1.57  MgSO4:6H2O
  Illite           -7.18    -47.44  -40.27  K0.6Mg0.25Al2.3Si3.5O10(OH)2
  Jarosite-K      -11.73    -20.94   -9.21  KFe3(SO4)2(OH)6
  K-feldspar       -4.93    -25.51  -20.57  KAlSi3O8
  K-mica           -3.79      8.91   12.70  KAl3Si3O10(OH)2
  Kaolinite        -1.09      6.35    7.43  Al2Si2O5(OH)4
  Kieserite        -3.32     -4.48   -1.16  MgSO4:H2O
  Mackinawite     -23.97    -28.61   -4.65  FeS
  Manganite       -14.86     10.48   25.34  MnOOH
  Melanterite      -1.67     -3.88   -2.21  FeSO4:7H2O
  Mirabilite       -5.56     -6.26   -0.71  Na2SO4:10H2O
  O2(g)           -53.97    -56.87   -2.89  O2
  Otavite          -8.89    -20.99  -12.10  CdCO3
  Pyrite          -28.73    -47.21  -18.48  FeS2
  Pyrochroite     -12.02      3.18   15.20  Mn(OH)2
  Pyrolusite      -23.60     17.78   41.38  MnO2:H2O
  Quartz            1.28     -2.70   -3.98  SiO2
  Rhodochrosite    -7.33    -18.46  -11.13  MnCO3
  Sepiolite       -15.92     -0.16   15.76  Mg2Si3O7.5OH:3H2O
  Sepiolite(d)    -18.82     -0.16   18.66  Mg2Si3O7.5OH:3H2O
  Siderite         -6.18    -17.07  -10.89  FeCO3
  SiO2(a)           0.01     -2.70   -2.71  SiO2
  Smithsonite      -9.30    -19.30  -10.00  ZnCO3
  Sphalerite      -19.23    -30.85  -11.62  ZnS
  Strontianite    -11.36    -20.63   -9.27  SrCO3
  Sulfur          -16.54    -11.66    4.88  S
  Sylvite          -7.02     -6.12    0.90  KCl
  Talc            -20.28      1.12   21.40  Mg3Si4O10(OH)2
  Thenardite       -6.90     -6.25    0.65  Na2SO4
  Willemite       -13.33      2.00   15.33  Zn2SiO4
  Zn(OH)2(e)       -9.15      2.35   11.50  Zn(OH)2

**For a gas, SI = log10(fugacity). Fugacity = pressure * phi / 1 atm.
  For ideal gases, phi = 1.

------------------
End of simulation.
------------------

------------------------------------
Reading input data for simulation 2.
------------------------------------

