WARNING: Database file from DATABASE keyword is used; command line argument ignored.
   Input file: jgbcol
  Output file: jgbcol.out
Database file: ../database/phreeqc.dat

------------------
Reading data base.
------------------

	SOLUTION_MASTER_SPECIES
	SOLUTION_SPECIES
	PHASES
	GAS_BINARY_PARAMETERS
	EXCHANGE_MASTER_SPECIES
	EXCHANGE_SPECIES
	SURFACE_MASTER_SPECIES
	SURFACE_SPECIES
	MEAN_GAMMAS
	RATES
	END
------------------------------------
Reading input data for simulation 1.
------------------------------------

	DATABASE ../database/phreeqc.dat
	SELECTED_OUTPUT 101
	    file                 jgbcol_101.sel
	USER_PUNCH 101
	    headings Mu SC
	    start
	10 PUNCH STR_F$(MU, 20, 12)
	20 PUNCH STR_F$(SC, 20, 10)
	    end
	knobs
		logfile
	PRINT
		status false
	KNOBS
	SOLUTION 0
		ph	3.3
		temp	25
		units mmol/l
		Ca	11.6
		Mg	15.8
		Na	9.4
		K	0.2
		Fe	52.4
		Mn	1.34
		Al	10.5
		Cu	2.4
		Zn	0.33
		S(6)	100 	charge
		Cl	9.5
		C(4)	0.1	CO2(g)  -3.5
	SOLUTION 1-5
		ph	7.19
		temp	25
		units mmol/l
		O(0)	0.22
		Ca	1.2	charge
		Mg	0.37
		Na	0.96
		K	0.03
		Fe	3.5e-7	mol/l
		Mn	1.0e-7	mol/l
		Al	1.8e-6  mol/l
		Cu	1.5e-7	mol/l
		Zn	2.5e-7	mol/l
		S(6)	0.7
		Cl	0.48
		Alkalinity	2.3
	PURE_PHASES 1-5
		MnO2		0.0	0.045
		Fe(OH)3		0.0	0.73
		Calcite		0.0	0.14
		Gypsum 		0.0	0.0
		Al(OH)3(a)	0.0	0.0
		AlOHSO4		0.0	0.0
	USE PURE_PHASES none
	ADVECTION
		cells		5
		shifts		25
		print_frequency	5
	PHASES
		Fe(OH)3
		Fe(OH)3 + 3 H+ = Fe+3 + 3 H2O                                                 
		log_k 4.891
		MnO2
		MnO2 + 4 H+ + 2 e- = Mn+2 + 2 H2O                                          
		log_k 		41.380
		delta_h   	-65.110 kcal
		Al(OH)3(a)
		Al(OH)3 + 3H+ = Al+3 + 3H2O 
		log_k		10.8
		delta_h	-26.5 kcal
		AlOHSO4
		AlOHSO4 + H+ = Al+3 + SO4-2 + H2O 
		log_k		-2.2
	END
-------------------------------------------
Beginning of initial solution calculations.
-------------------------------------------

Initial solution 0.	

-----------------------------Solution composition------------------------------

	Elements           Molality       Moles

	Al                1.065e-02   1.065e-02
	C(4)              1.045e-05   1.045e-05  Equilibrium with CO2(g)
	Ca                1.177e-02   1.177e-02
	Cl                9.640e-03   9.640e-03
	Cu                2.435e-03   2.435e-03
	Fe                5.317e-02   5.317e-02
	K                 2.029e-04   2.029e-04
	Mg                1.603e-02   1.603e-02
	Mn                1.360e-03   1.360e-03
	Na                9.538e-03   9.538e-03
	S(6)              1.018e-01   1.018e-01  Charge balance
	Zn                3.348e-04   3.348e-04

----------------------------Description of solution----------------------------

                                       pH  =   3.300    
                                       pe  =   4.000    
      Specific Conductance (µS/cm,  25°C)  = 11032
                          Density (g/cm³)  =   1.01096
                               Volume (L)  =   1.00371
                        Viscosity (mPa s)  =   0.91378
                        Activity of water  =   0.997
                 Ionic strength (mol/kgw)  =   2.126e-01
                       Mass of water (kg)  =   1.000e+00
                 Total alkalinity (eq/kg)  =  -1.663e-03
                       Total CO2 (mol/kg)  =   1.045e-05
                         Temperature (°C)  =  25.00
                  Electrical balance (eq)  =   2.075e-14
 Percent error, 100*(Cat-|An|)/(Cat+|An|)  =   0.00
                               Iterations  =   9
                                  Total H  = 1.110141e+02
                                  Total O  = 5.591339e+01

----------------------------Distribution of species----------------------------

                                               Log       Log       Log    mole V
   Species          Molality    Activity  Molality  Activity     Gamma   cm³/mol

   H+              6.302e-04   5.012e-04    -3.200    -3.300    -0.100      0.00
   OH-             2.869e-11   2.014e-11   -10.542   -10.696    -0.154     -3.47
   H2O             5.551e+01   9.972e-01     1.744    -0.001     0.000     18.07
Al            1.065e-02
   AlSO4+          6.789e-03   4.920e-03    -2.168    -2.308    -0.140     (0)  
   Al(SO4)2-       2.974e-03   2.155e-03    -2.527    -2.666    -0.140     (0)  
   Al+3            8.830e-04   1.123e-04    -3.054    -3.950    -0.896    -40.80
   AlOH+2          7.306e-06   2.219e-06    -5.136    -5.654    -0.517    -26.92
   AlHSO4+2        7.135e-07   2.186e-07    -6.147    -6.660    -0.514     (0)  
   Al(OH)2+        4.662e-08   3.461e-08    -7.331    -7.461    -0.129     (0)  
   Al(OH)3         9.662e-12   1.015e-11   -11.015   -10.994     0.021     (0)  
   Al(OH)4-        5.250e-14   3.805e-14   -13.280   -13.420    -0.140     (0)  
C(4)          1.045e-05
   CO2             1.042e-05   1.076e-05    -4.982    -4.968     0.014     34.79
   HCO3-           1.278e-08   9.523e-09    -7.894    -8.021    -0.128     26.01
   FeHCO3+         1.242e-08   9.241e-09    -7.906    -8.034    -0.128     (0)  
   CuHCO3+         2.283e-09   1.698e-09    -8.642    -8.770    -0.128     (0)  
   MnHCO3+         4.465e-10   3.281e-10    -9.350    -9.484    -0.134     (0)  
   MgHCO3+         3.731e-10   2.663e-10    -9.428    -9.575    -0.146      5.72
   ZnHCO3+         9.187e-11   6.835e-11   -10.037   -10.165    -0.128     (0)  
   NaHCO3          2.767e-11   2.979e-11   -10.558   -10.526     0.032     17.66
   (CO2)2          1.823e-12   1.882e-12   -11.739   -11.725     0.014     68.75
   CuCO3           1.621e-12   1.703e-12   -11.790   -11.769     0.021     (0)  
   KHCO3           4.913e-13   5.160e-13   -12.309   -12.287     0.021     21.42
   FeCO3           1.975e-13   2.074e-13   -12.704   -12.683     0.021     (0)  
   MnCO3           2.606e-14   2.736e-14   -13.584   -13.563     0.021     (0)  
   ZnCO3           9.652e-15   1.014e-14   -14.015   -13.994     0.021     (0)  
   CaCO3           3.312e-15   3.478e-15   -14.480   -14.459     0.021    -14.60
   CO3-2           2.933e-15   8.910e-16   -14.533   -15.050    -0.517     -2.53
   CaHCO3+         2.576e-15   1.940e-15   -14.589   -14.712    -0.123      9.88
   MgCO3           1.935e-15   2.032e-15   -14.713   -14.692     0.021    -17.09
   Cu(CO3)2-2      6.234e-24   1.910e-24   -23.205   -23.719    -0.514     (0)  
   Zn(CO3)2-2      6.302e-25   1.931e-25   -24.201   -24.714    -0.514     (0)  
Ca            1.177e-02
   Ca+2            7.351e-03   2.324e-03    -2.134    -2.634    -0.500    -17.19
   CaSO4           4.394e-03   4.490e-03    -2.357    -2.348     0.009      7.22
   CaHSO4+         2.535e-05   1.886e-05    -4.596    -4.724    -0.128     (0)  
   CaOH+           1.031e-12   7.673e-13   -11.987   -12.115    -0.128     (0)  
   CaCO3           3.312e-15   3.478e-15   -14.480   -14.459     0.021    -14.60
   CaHCO3+         2.576e-15   1.940e-15   -14.589   -14.712    -0.123      9.88
Cl            9.640e-03
   Cl-             8.827e-03   6.276e-03    -2.054    -2.202    -0.148     18.47
   CuCl2-          3.259e-04   2.326e-04    -3.487    -3.633    -0.146     (0)  
   FeCl+           1.130e-04   8.407e-05    -3.947    -4.075    -0.128     (0)  
   MnCl+           1.345e-05   9.884e-06    -4.871    -5.005    -0.134     -2.87
   CuCl+           8.421e-06   6.011e-06    -5.075    -5.221    -0.146      1.16
   CuCl3-2         7.936e-06   2.314e-06    -5.100    -5.636    -0.535     (0)  
   ZnCl+           1.349e-06   9.631e-07    -5.870    -6.016    -0.146    -14.41
   HCl             8.798e-07   1.084e-06    -6.056    -5.965     0.090     20.36
   MnCl2           2.578e-08   2.708e-08    -7.589    -7.567     0.021     85.89
   CuCl2           1.929e-08   2.026e-08    -7.715    -7.693     0.021     31.02
   ZnCl2           6.027e-09   6.329e-09    -8.220    -8.199     0.021    102.03
   MnCl3-          6.370e-11   4.681e-11   -10.196   -10.330    -0.134     44.29
   ZnCl3-          6.244e-11   4.457e-11   -10.205   -10.351    -0.146     15.74
   ZnOHCl          2.245e-11   2.357e-11   -10.649   -10.628     0.021     (0)  
   FeCl+2          6.025e-12   1.757e-12   -11.220   -11.755    -0.535     (0)  
   CuCl3-          6.320e-13   4.511e-13   -12.199   -12.346    -0.146     (0)  
   ZnCl4-2         4.808e-13   1.402e-13   -12.318   -12.853    -0.535    147.47
   FeCl2+          6.701e-14   4.924e-14   -13.174   -13.308    -0.134     (0)  
   CuCl4-2         4.867e-17   1.419e-17   -16.313   -16.848    -0.535     (0)  
   FeCl3           2.943e-17   3.090e-17   -16.531   -16.510     0.021     (0)  
Cu(1)         3.615e-04
   CuCl2-          3.259e-04   2.326e-04    -3.487    -3.633    -0.146     (0)  
   Cu+             2.766e-05   1.868e-05    -4.558    -4.729    -0.171     (0)  
   CuCl3-2         7.936e-06   2.314e-06    -5.100    -5.636    -0.535     (0)  
Cu(2)         2.074e-03
   Cu+2            1.107e-03   3.558e-04    -2.956    -3.449    -0.493    -25.74
   CuSO4           9.585e-04   1.007e-03    -3.018    -2.997     0.021     13.09
   CuCl+           8.421e-06   6.011e-06    -5.075    -5.221    -0.146      1.16
   CuCl2           1.929e-08   2.026e-08    -7.715    -7.693     0.021     31.02
   CuOH+           9.920e-09   7.080e-09    -8.004    -8.150    -0.146     (0)  
   CuHCO3+         2.283e-09   1.698e-09    -8.642    -8.770    -0.128     (0)  
   Cu2(OH)2+2      7.159e-11   2.194e-11   -10.145   -10.659    -0.514     (0)  
   Cu(OH)2         2.803e-11   2.943e-11   -10.552   -10.531     0.021     (0)  
   CuCO3           1.621e-12   1.703e-12   -11.790   -11.769     0.021     (0)  
   CuCl3-          6.320e-13   4.511e-13   -12.199   -12.346    -0.146     (0)  
   CuCl4-2         4.867e-17   1.419e-17   -16.313   -16.848    -0.535     (0)  
   Cu(OH)3-        4.743e-21   3.529e-21   -20.324   -20.452    -0.128     (0)  
   Cu(CO3)2-2      6.234e-24   1.910e-24   -23.205   -23.719    -0.514     (0)  
   Cu(OH)4-2       4.572e-30   1.401e-30   -29.340   -29.854    -0.514     (0)  
Fe(2)         5.317e-02
   Fe+2            3.018e-02   9.704e-03    -1.520    -2.013    -0.493    -21.23
   FeSO4           2.277e-02   2.391e-02    -1.643    -1.621     0.021     30.28
   FeCl+           1.130e-04   8.407e-05    -3.947    -4.075    -0.128     (0)  
   FeHSO4+         1.059e-04   7.877e-05    -3.975    -4.104    -0.128     (0)  
   FeHCO3+         1.242e-08   9.241e-09    -7.906    -8.034    -0.128     (0)  
   FeOH+           8.310e-09   6.106e-09    -8.080    -8.214    -0.134     (0)  
   FeCO3           1.975e-13   2.074e-13   -12.704   -12.683     0.021     (0)  
   Fe(OH)2         9.847e-17   1.034e-16   -16.007   -15.985     0.021     (0)  
   Fe(OH)3-        1.040e-23   7.644e-24   -22.983   -23.117    -0.134     (0)  
Fe(3)         3.089e-09
   FeSO4+          1.916e-09   1.408e-09    -8.718    -8.851    -0.134     (0)  
   Fe(SO4)2-       5.736e-10   4.267e-10    -9.241    -9.370    -0.128     (0)  
   FeOH+2          4.084e-10   1.191e-10    -9.389    -9.924    -0.535     (0)  
   Fe(OH)2+        1.057e-10   7.844e-11    -9.976   -10.105    -0.129     (0)  
   Fe+3            7.288e-11   9.268e-12   -10.137   -11.033    -0.896     (0)  
   FeHSO4+2        6.166e-12   1.889e-12   -11.210   -11.724    -0.514     (0)  
   FeCl+2          6.025e-12   1.757e-12   -11.220   -11.755    -0.535     (0)  
   FeCl2+          6.701e-14   4.924e-14   -13.174   -13.308    -0.134     (0)  
   Fe(OH)3         1.915e-14   2.011e-14   -13.718   -13.697     0.021     (0)  
   Fe2(OH)2+4      4.328e-17   3.815e-19   -16.364   -18.418    -2.055     (0)  
   FeCl3           2.943e-17   3.090e-17   -16.531   -16.510     0.021     (0)  
   Fe(OH)4-        4.914e-20   3.648e-20   -19.309   -19.438    -0.129     (0)  
   Fe3(OH)4+5      1.015e-23   6.253e-27   -22.993   -26.204    -3.211     (0)  
H(0)          3.378e-18
   H2              1.689e-18   1.778e-18   -17.772   -17.750     0.022     14.99
K             2.029e-04
   K+              1.716e-04   1.213e-04    -3.766    -3.916    -0.151      9.35
   KSO4-           3.139e-05   2.557e-05    -4.503    -4.592    -0.089     28.86
   KHCO3           4.913e-13   5.160e-13   -12.309   -12.287     0.021     21.42
Mg            1.603e-02
   MgSO4           7.862e-03   8.670e-03    -2.104    -2.062     0.043     -0.40
   Mg+2            7.064e-03   2.390e-03    -2.151    -2.622    -0.471    -20.90
   Mg(SO4)2-2      1.106e-03   3.957e-04    -2.956    -3.403    -0.447     45.25
   MgHCO3+         3.731e-10   2.663e-10    -9.428    -9.575    -0.146      5.72
   MgOH+           2.268e-11   1.727e-11   -10.644   -10.763    -0.118     (0)  
   MgCO3           1.935e-15   2.032e-15   -14.713   -14.692     0.021    -17.09
Mn(2)         1.360e-03
   Mn+2            1.202e-03   3.866e-04    -2.920    -3.413    -0.493    -17.49
   MnSO4           1.438e-04   1.370e-04    -3.842    -3.863    -0.021     17.15
   MnCl+           1.345e-05   9.884e-06    -4.871    -5.005    -0.134     -2.87
   MnCl2           2.578e-08   2.708e-08    -7.589    -7.567     0.021     85.89
   MnHCO3+         4.465e-10   3.281e-10    -9.350    -9.484    -0.134     (0)  
   MnCl3-          6.370e-11   4.681e-11   -10.196   -10.330    -0.134     44.29
   MnOH+           2.691e-11   1.977e-11   -10.570   -10.704    -0.134     (0)  
   MnCO3           2.606e-14   2.736e-14   -13.584   -13.563     0.021     (0)  
   Mn(OH)3-        6.568e-29   4.826e-29   -28.183   -28.316    -0.134     (0)  
Mn(3)         9.394e-25
   Mn+3            9.394e-25   1.195e-25   -24.027   -24.923    -0.896     (0)  
Na            9.538e-03
   Na+             8.497e-03   6.329e-03    -2.071    -2.199    -0.128     -0.92
   NaSO4-          1.041e-03   7.703e-04    -2.982    -3.113    -0.131     19.27
   Na2SO4          2.276e-09   2.377e-09    -8.643    -8.624     0.019     47.96
   NaHCO3          2.767e-11   2.979e-11   -10.558   -10.526     0.032     17.66
O(0)          0.000e+00
   O2              0.000e+00   0.000e+00   -56.886   -56.865     0.021     30.40
S(6)          1.018e-01
   SO4-2           4.846e-02   1.385e-02    -1.315    -1.858    -0.544     15.59
   FeSO4           2.277e-02   2.391e-02    -1.643    -1.621     0.021     30.28
   MgSO4           7.862e-03   8.670e-03    -2.104    -2.062     0.043     -0.40
   AlSO4+          6.789e-03   4.920e-03    -2.168    -2.308    -0.140     (0)  
   CaSO4           4.394e-03   4.490e-03    -2.357    -2.348     0.009      7.22
   Al(SO4)2-       2.974e-03   2.155e-03    -2.527    -2.666    -0.140     (0)  
   Mg(SO4)2-2      1.106e-03   3.957e-04    -2.956    -3.403    -0.447     45.25
   NaSO4-          1.041e-03   7.703e-04    -2.982    -3.113    -0.131     19.27
   CuSO4           9.585e-04   1.007e-03    -3.018    -2.997     0.021     13.09
   HSO4-           9.074e-04   6.751e-04    -3.042    -3.171    -0.128     40.66
   MnSO4           1.438e-04   1.370e-04    -3.842    -3.863    -0.021     17.15
   ZnSO4           1.369e-04   1.437e-04    -3.864    -3.842     0.021      6.48
   FeHSO4+         1.059e-04   7.877e-05    -3.975    -4.104    -0.128     (0)  
   KSO4-           3.139e-05   2.557e-05    -4.503    -4.592    -0.089     28.86
   CaHSO4+         2.535e-05   1.886e-05    -4.596    -4.724    -0.128     (0)  
   Zn(SO4)2-2      1.075e-06   1.546e-07    -5.969    -6.811    -0.842     45.30
   AlHSO4+2        7.135e-07   2.186e-07    -6.147    -6.660    -0.514     (0)  
   Na2SO4          2.276e-09   2.377e-09    -8.643    -8.624     0.019     47.96
   FeSO4+          1.916e-09   1.408e-09    -8.718    -8.851    -0.134     (0)  
   Fe(SO4)2-       5.736e-10   4.267e-10    -9.241    -9.370    -0.128     (0)  
   FeHSO4+2        6.166e-12   1.889e-12   -11.210   -11.724    -0.514     (0)  
Zn            3.348e-04
   Zn+2            1.955e-04   5.701e-05    -3.709    -4.244    -0.535    -24.47
   ZnSO4           1.369e-04   1.437e-04    -3.864    -3.842     0.021      6.48
   ZnCl+           1.349e-06   9.631e-07    -5.870    -6.016    -0.146    -14.41
   Zn(SO4)2-2      1.075e-06   1.546e-07    -5.969    -6.811    -0.842     45.30
   ZnCl2           6.027e-09   6.329e-09    -8.220    -8.199     0.021    102.03
   ZnOH+           1.672e-10   1.244e-10    -9.777    -9.905    -0.128     (0)  
   ZnHCO3+         9.187e-11   6.835e-11   -10.037   -10.165    -0.128     (0)  
   ZnCl3-          6.244e-11   4.457e-11   -10.205   -10.351    -0.146     15.74
   ZnOHCl          2.245e-11   2.357e-11   -10.649   -10.628     0.021     (0)  
   ZnCl4-2         4.808e-13   1.402e-13   -12.318   -12.853    -0.535    147.47
   ZnCO3           9.652e-15   1.014e-14   -14.015   -13.994     0.021     (0)  
   Zn(OH)2         2.706e-15   2.841e-15   -14.568   -14.546     0.021     (0)  
   Zn(OH)3-        2.403e-23   1.788e-23   -22.619   -22.748    -0.128     (0)  
   Zn(CO3)2-2      6.302e-25   1.931e-25   -24.201   -24.714    -0.514     (0)  
   Zn(OH)4-2       1.840e-32   5.638e-33   -31.735   -32.249    -0.514     (0)  

------------------------------Saturation indices-------------------------------

  Phase               SI** log IAP   log K(298 K,   1 atm)

  Al(OH)3(a)       -4.85      5.95   10.80  Al(OH)3
  AlOHSO4          -0.31     -2.51   -2.20  AlOHSO4
  Alunite           1.71      0.31   -1.40  KAl3(SO4)2(OH)6
  Anhydrite        -0.18     -4.49   -4.31  CaSO4
  Aragonite        -9.35    -17.68   -8.34  CaCO3
  Arcanite         -7.81     -9.69   -1.88  K2SO4
  Calcite          -9.24    -17.68   -8.45  CaCO3
  CO2(g)           -3.50     -4.97   -1.47  CO2	 Pressure   0.0 atm, phi 1.000
  Dolomite        -18.27    -35.36  -17.08  CaMg(CO3)2
  Epsomite         -2.75     -4.49   -1.74  MgSO4:7H2O
  Fe(OH)3          -6.03     -1.14    4.89  Fe(OH)3
  Fe(OH)3(a)       -6.03     -1.14    4.89  Fe(OH)3
  Gibbsite         -2.16      5.95    8.11  Al(OH)3
  Goethite         -0.14     -1.14   -1.00  FeOOH
  Gypsum            0.05     -4.49   -4.55  CaSO4:2H2O
  H2(g)           -14.65    -17.75   -3.10  H2
  H2O(g)           -1.50     -0.00    1.50  H2O
  Halite           -5.97     -4.40    1.57  NaCl
  Hausmannite     -36.87     24.16   61.03  Mn3O4
  Hematite          1.74     -2.27   -4.01  Fe2O3
  Hexahydrite      -2.92     -4.49   -1.57  MgSO4:6H2O
  Jarosite-K      -11.73    -20.94   -9.21  KFe3(SO4)2(OH)6
  Kieserite        -3.32     -4.48   -1.16  MgSO4:H2O
  Manganite       -14.86     10.48   25.34  MnOOH
  Melanterite      -1.67     -3.88   -2.21  FeSO4:7H2O
  Mirabilite       -5.56     -6.27   -0.71  Na2SO4:10H2O
  MnO2            -23.60     17.78   41.38  MnO2
  O2(g)           -53.97    -56.86   -2.89  O2
  Pyrochroite     -12.02      3.18   15.20  Mn(OH)2
  Pyrolusite      -23.60     17.78   41.38  MnO2:H2O
  Rhodochrosite    -7.33    -18.46  -11.13  MnCO3
  Siderite         -6.17    -17.06  -10.89  FeCO3
  Smithsonite      -9.29    -19.29  -10.00  ZnCO3
  Sylvite          -7.02     -6.12    0.90  KCl
  Thenardite       -6.91     -6.26    0.65  Na2SO4
  Zn(OH)2(e)       -9.15      2.35   11.50  Zn(OH)2

**For a gas, SI = log10(fugacity). Fugacity = pressure * phi / 1 atm.
  For ideal gases, phi = 1.

Initial solution 1.	

-----------------------------Solution composition------------------------------

	Elements           Molality       Moles

	Al                1.801e-06   1.801e-06
	Alkalinity        2.301e-03   2.301e-03
	Ca                1.222e-03   1.222e-03  Charge balance
	Cl                4.801e-04   4.801e-04
	Cu                1.500e-07   1.500e-07
	Fe                3.501e-07   3.501e-07
	K                 3.001e-05   3.001e-05
	Mg                3.701e-04   3.701e-04
	Mn                1.000e-07   1.000e-07
	Na                9.603e-04   9.603e-04
	O(0)              2.201e-04   2.201e-04
	S(6)              7.002e-04   7.002e-04
	Zn                2.501e-07   2.501e-07

----------------------------Description of solution----------------------------

                                       pH  =   7.190    
                                       pe  =   4.000    
      Specific Conductance (µS/cm,  25°C)  = 444
                          Density (g/cm³)  =   0.99731
                               Volume (L)  =   1.00302
                        Viscosity (mPa s)  =   0.89193
                        Activity of water  =   1.000
                 Ionic strength (mol/kgw)  =   6.118e-03
                       Mass of water (kg)  =   1.000e+00
                    Total carbon (mol/kg)  =   2.593e-03
                       Total CO2 (mol/kg)  =   2.593e-03
                         Temperature (°C)  =  25.00
                  Electrical balance (eq)  =   1.351e-17
 Percent error, 100*(Cat-|An|)/(Cat+|An|)  =   0.00
                               Iterations  =  11 (20 overall)
                                  Total H  = 1.110147e+02
                                  Total O  = 5.551672e+01

---------------------------------Redox couples---------------------------------

	Redox couple             pe  Eh (volts)

	O(-2)/O(0)          13.3362      0.7889

----------------------------Distribution of species----------------------------

                                               Log       Log       Log    mole V
   Species          Molality    Activity  Molality  Activity     Gamma   cm³/mol

   OH-             1.705e-07   1.567e-07    -6.768    -6.805    -0.037     -4.06
   H+              6.957e-08   6.457e-08    -7.158    -7.190    -0.032      0.00
   H2O             5.551e+01   9.999e-01     1.744    -0.000     0.000     18.07
Al            1.801e-06
   Al(OH)4-        1.720e-06   1.584e-06    -5.764    -5.800    -0.036     (0)  
   Al(OH)3         5.420e-08   5.428e-08    -7.266    -7.265     0.001     (0)  
   Al(OH)2+        2.579e-08   2.379e-08    -7.589    -7.624    -0.035     (0)  
   AlOH+2          2.706e-10   1.960e-10    -9.568    -9.708    -0.140    -27.61
   Al+3            2.493e-12   1.274e-12   -11.603   -11.895    -0.292    -41.99
   AlSO4+          1.943e-12   1.790e-12   -11.711   -11.747    -0.036     (0)  
   Al(SO4)2-       2.730e-14   2.514e-14   -13.564   -13.600    -0.036     (0)  
   AlHSO4+2        1.428e-20   1.025e-20   -19.845   -19.989    -0.144     (0)  
C(4)          2.593e-03
   HCO3-           2.276e-03   2.100e-03    -2.643    -2.678    -0.035     24.65
   CO2             3.046e-04   3.049e-04    -3.516    -3.516     0.000     34.79
   MgHCO3+         6.501e-06   5.982e-06    -5.187    -5.223    -0.036      5.51
   CaCO3           2.162e-06   2.165e-06    -5.665    -5.665     0.001    -14.60
   CO3-2           2.106e-06   1.525e-06    -5.676    -5.817    -0.140     -4.46
   NaHCO3          9.119e-07   9.138e-07    -6.040    -6.039     0.001     17.66
   MgCO3           3.538e-07   3.543e-07    -6.451    -6.451     0.001    -17.09
   CuCO3           7.649e-08   7.660e-08    -7.116    -7.116     0.001     (0)  
   ZnCO3           3.630e-08   3.635e-08    -7.440    -7.439     0.001     (0)  
   ZnHCO3+         3.431e-08   3.158e-08    -7.465    -7.501    -0.036     (0)  
   KHCO3           2.565e-08   2.569e-08    -7.591    -7.590     0.001     21.42
   FeHCO3+         2.461e-08   2.265e-08    -7.609    -7.645    -0.036     (0)  
   MnHCO3+         1.186e-08   1.093e-08    -7.926    -7.961    -0.035     (0)  
   CuHCO3+         1.069e-08   9.842e-09    -7.971    -8.007    -0.036     (0)  
   MnCO3           7.067e-09   7.077e-09    -8.151    -8.150     0.001     (0)  
   FeCO3           3.941e-09   3.947e-09    -8.404    -8.404     0.001     (0)  
   Zn(CO3)2-2      1.653e-09   1.186e-09    -8.782    -8.926    -0.144     (0)  
   (CO2)2          1.510e-09   1.511e-09    -8.821    -8.821     0.000     68.75
   Cu(CO3)2-2      2.051e-10   1.471e-10    -9.688    -9.832    -0.144     (0)  
   CaHCO3+         1.685e-10   1.556e-10    -9.774    -9.808    -0.035      9.71
Ca            1.222e-03
   Ca+2            1.167e-03   8.449e-04    -2.933    -3.073    -0.140    -17.99
   CaSO4           5.232e-05   5.236e-05    -4.281    -4.281     0.000      7.22
   CaCO3           2.162e-06   2.165e-06    -5.665    -5.665     0.001    -14.60
   CaOH+           2.360e-09   2.172e-09    -8.627    -8.663    -0.036     (0)  
   CaHCO3+         1.685e-10   1.556e-10    -9.774    -9.808    -0.035      9.71
   CaHSO4+         3.078e-11   2.833e-11   -10.512   -10.548    -0.036     (0)  
Cl            4.801e-04
   Cl-             4.801e-04   4.415e-04    -3.319    -3.355    -0.036     18.12
   ZnCl+           1.543e-10   1.420e-10    -9.812    -9.848    -0.036    -13.88
   MnCl+           1.140e-10   1.051e-10    -9.943    -9.979    -0.035     -3.05
   FeCl+           7.143e-11   6.574e-11   -10.146   -10.182    -0.036     (0)  
   CuCl2-          3.288e-11   3.026e-11   -10.483   -10.519    -0.036     (0)  
   ZnOHCl          2.701e-11   2.705e-11   -10.569   -10.568     0.001     (0)  
   CuCl+           1.208e-11   1.111e-11   -10.918   -10.954    -0.036      0.68
   HCl             9.762e-12   9.821e-12   -11.010   -11.008     0.003     20.36
   ZnCl2           6.554e-14   6.563e-14   -13.183   -13.183     0.001    102.03
   CuCl3-2         2.932e-14   2.117e-14   -13.533   -13.674    -0.141     (0)  
   MnCl2           2.022e-14   2.025e-14   -13.694   -13.694     0.001     85.89
   CuCl2           2.632e-15   2.635e-15   -14.580   -14.579     0.001     31.02
   ZnCl3-          3.534e-17   3.252e-17   -16.452   -16.488    -0.036     16.98
   MnCl3-          2.671e-18   2.463e-18   -17.573   -17.609    -0.035     43.40
   FeCl+2          1.902e-18   1.374e-18   -17.721   -17.862    -0.141     (0)  
   ZnCl4-2         9.965e-21   7.196e-21   -20.002   -20.143    -0.141    145.36
   CuCl3-          4.487e-21   4.129e-21   -20.348   -20.384    -0.036     (0)  
   FeCl2+          2.939e-21   2.709e-21   -20.532   -20.567    -0.035     (0)  
   FeCl3           1.194e-25   1.196e-25   -24.923   -24.922     0.001     (0)  
   CuCl4-2         1.265e-26   9.136e-27   -25.898   -26.039    -0.141     (0)  
Cu(1)         5.679e-10
   Cu+             5.350e-10   4.908e-10    -9.272    -9.309    -0.037     (0)  
   CuCl2-          3.288e-11   3.026e-11   -10.483   -10.519    -0.036     (0)  
   CuCl3-2         2.932e-14   2.117e-14   -13.533   -13.674    -0.141     (0)  
Cu(2)         1.495e-07
   CuCO3           7.649e-08   7.660e-08    -7.116    -7.116     0.001     (0)  
   Cu(OH)2         4.679e-08   4.686e-08    -7.330    -7.329     0.001     (0)  
   Cu+2            1.286e-08   9.351e-09    -7.891    -8.029    -0.138    -26.46
   CuHCO3+         1.069e-08   9.842e-09    -7.971    -8.007    -0.036     (0)  
   CuOH+           1.574e-09   1.448e-09    -8.803    -8.839    -0.036     (0)  
   CuSO4           8.470e-10   8.482e-10    -9.072    -9.072     0.001     13.09
   Cu(CO3)2-2      2.051e-10   1.471e-10    -9.688    -9.832    -0.144     (0)  
   CuCl+           1.208e-11   1.111e-11   -10.918   -10.954    -0.036      0.68
   Cu2(OH)2+2      1.279e-12   9.177e-13   -11.893   -12.037    -0.144     (0)  
   Cu(OH)3-        4.751e-14   4.372e-14   -13.323   -13.359    -0.036     (0)  
   CuCl2           2.632e-15   2.635e-15   -14.580   -14.579     0.001     31.02
   Cu(OH)4-2       1.883e-19   1.351e-19   -18.725   -18.869    -0.144     (0)  
   CuCl3-          4.487e-21   4.129e-21   -20.348   -20.384    -0.036     (0)  
   CuCl4-2         1.265e-26   9.136e-27   -25.898   -26.039    -0.141     (0)  
Fe(2)         1.860e-07
   Fe+2            1.483e-07   1.079e-07    -6.829    -6.967    -0.138    -21.99
   FeHCO3+         2.461e-08   2.265e-08    -7.609    -7.645    -0.036     (0)  
   FeSO4           8.509e-09   8.521e-09    -8.070    -8.070     0.001     30.28
   FeCO3           3.941e-09   3.947e-09    -8.404    -8.404     0.001     (0)  
   FeOH+           5.730e-10   5.282e-10    -9.242    -9.277    -0.035     (0)  
   FeCl+           7.143e-11   6.574e-11   -10.146   -10.182    -0.036     (0)  
   Fe(OH)2         6.953e-14   6.962e-14   -13.158   -13.157     0.001     (0)  
   FeHSO4+         3.929e-15   3.616e-15   -14.406   -14.442    -0.036     (0)  
   Fe(OH)3-        4.346e-17   4.006e-17   -16.362   -16.397    -0.035     (0)  
Fe(3)         1.641e-07
   Fe(OH)3         1.052e-07   1.054e-07    -6.978    -6.977     0.001     (0)  
   Fe(OH)2+        5.725e-08   5.282e-08    -7.242    -7.277    -0.035     (0)  
   Fe(OH)4-        1.613e-09   1.488e-09    -8.792    -8.827    -0.035     (0)  
   FeOH+2          1.426e-11   1.030e-11   -10.846   -10.987    -0.141     (0)  
   FeSO4+          5.443e-16   5.017e-16   -15.264   -15.300    -0.035     (0)  
   Fe+3            2.016e-16   1.030e-16   -15.696   -15.987    -0.292     (0)  
   Fe(SO4)2-       5.299e-18   4.877e-18   -17.276   -17.312    -0.036     (0)  
   FeCl+2          1.902e-18   1.374e-18   -17.721   -17.862    -0.141     (0)  
   Fe2(OH)2+4      1.078e-20   2.855e-21   -19.967   -20.544    -0.577     (0)  
   FeCl2+          2.939e-21   2.709e-21   -20.532   -20.567    -0.035     (0)  
   FeHSO4+2        1.209e-22   8.675e-23   -21.917   -22.062    -0.144     (0)  
   Fe3(OH)4+5      2.512e-25   3.151e-26   -24.600   -25.502    -0.902     (0)  
   FeCl3           1.194e-25   1.196e-25   -24.923   -24.922     0.001     (0)  
H(0)          5.894e-26
   H2              2.947e-26   2.951e-26   -25.531   -25.530     0.001     14.99
K             3.001e-05
   K+              2.978e-05   2.738e-05    -4.526    -4.563    -0.037      9.05
   KSO4-           2.001e-07   1.851e-07    -6.699    -6.733    -0.034     20.00
   KHCO3           2.565e-08   2.569e-08    -7.591    -7.590     0.001     21.42
Mg            3.701e-04
   Mg+2            3.349e-04   2.434e-04    -3.475    -3.614    -0.139    -21.68
   MgSO4           2.824e-05   2.832e-05    -4.549    -4.548     0.001     -0.40
   MgHCO3+         6.501e-06   5.982e-06    -5.187    -5.223    -0.036      5.51
   MgCO3           3.538e-07   3.543e-07    -6.451    -6.451     0.001    -17.09
   Mg(SO4)2-2      5.653e-08   4.143e-08    -7.248    -7.383    -0.135     36.97
   MgOH+           1.481e-08   1.369e-08    -7.829    -7.864    -0.034     (0)  
Mn(2)         1.000e-07
   Mn+2            8.030e-08   5.841e-08    -7.095    -7.234    -0.138    -20.14
   MnHCO3+         1.186e-08   1.093e-08    -7.926    -7.961    -0.035     (0)  
   MnCO3           7.067e-09   7.077e-09    -8.151    -8.150     0.001     (0)  
   MnSO4           6.648e-10   6.639e-10    -9.177    -9.178    -0.001     17.15
   MnCl+           1.140e-10   1.051e-10    -9.943    -9.979    -0.035     -3.05
   MnOH+           2.522e-11   2.325e-11   -10.598   -10.634    -0.035     (0)  
   MnCl2           2.022e-14   2.025e-14   -13.694   -13.694     0.001     85.89
   MnCl3-          2.671e-18   2.463e-18   -17.573   -17.609    -0.035     43.40
   Mn(OH)3-        3.730e-21   3.438e-21   -20.428   -20.464    -0.035     (0)  
Mn(3)         3.532e-29
   Mn+3            3.532e-29   1.805e-29   -28.452   -28.744    -0.292     (0)  
Na            9.603e-04
   Na+             9.556e-04   8.804e-04    -3.020    -3.055    -0.036     -1.41
   NaSO4-          3.732e-06   3.436e-06    -5.428    -5.464    -0.036     16.86
   NaHCO3          9.119e-07   9.138e-07    -6.040    -6.039     0.001     17.66
   Na2SO4          1.473e-12   1.475e-12   -11.832   -11.831     0.001     47.96
O(0)          2.201e-04
   O2              1.100e-04   1.102e-04    -3.958    -3.958     0.001     30.40
S(6)          7.002e-04
   SO4-2           6.156e-04   4.442e-04    -3.211    -3.352    -0.142     14.64
   CaSO4           5.232e-05   5.236e-05    -4.281    -4.281     0.000      7.22
   MgSO4           2.824e-05   2.832e-05    -4.549    -4.548     0.001     -0.40
   NaSO4-          3.732e-06   3.436e-06    -5.428    -5.464    -0.036     16.86
   KSO4-           2.001e-07   1.851e-07    -6.699    -6.733    -0.034     20.00
   Mg(SO4)2-2      5.653e-08   4.143e-08    -7.248    -7.383    -0.135     36.97
   ZnSO4           9.642e-09   9.656e-09    -8.016    -8.015     0.001      6.48
   FeSO4           8.509e-09   8.521e-09    -8.070    -8.070     0.001     30.28
   HSO4-           3.030e-09   2.789e-09    -8.519    -8.555    -0.036     40.32
   CuSO4           8.470e-10   8.482e-10    -9.072    -9.072     0.001     13.09
   MnSO4           6.648e-10   6.639e-10    -9.177    -9.178    -0.001     17.15
   CaHSO4+         3.078e-11   2.833e-11   -10.512   -10.548    -0.036     (0)  
   AlSO4+          1.943e-12   1.790e-12   -11.711   -11.747    -0.036     (0)  
   Na2SO4          1.473e-12   1.475e-12   -11.832   -11.831     0.001     47.96
   Zn(SO4)2-2      4.775e-13   3.330e-13   -12.321   -12.478    -0.157     44.57
   Al(SO4)2-       2.730e-14   2.514e-14   -13.564   -13.600    -0.036     (0)  
   FeHSO4+         3.929e-15   3.616e-15   -14.406   -14.442    -0.036     (0)  
   FeSO4+          5.443e-16   5.017e-16   -15.264   -15.300    -0.035     (0)  
   Fe(SO4)2-       5.299e-18   4.877e-18   -17.276   -17.312    -0.036     (0)  
   AlHSO4+2        1.428e-20   1.025e-20   -19.845   -19.989    -0.144     (0)  
   FeHSO4+2        1.209e-22   8.675e-23   -21.917   -22.062    -0.144     (0)  
Zn            2.501e-07
   Zn+2            1.654e-07   1.194e-07    -6.781    -6.923    -0.141    -25.21
   ZnCO3           3.630e-08   3.635e-08    -7.440    -7.439     0.001     (0)  
   ZnHCO3+         3.431e-08   3.158e-08    -7.465    -7.501    -0.036     (0)  
   ZnSO4           9.642e-09   9.656e-09    -8.016    -8.015     0.001      6.48
   ZnOH+           2.204e-09   2.028e-09    -8.657    -8.693    -0.036     (0)  
   Zn(CO3)2-2      1.653e-09   1.186e-09    -8.782    -8.926    -0.144     (0)  
   Zn(OH)2         3.601e-10   3.606e-10    -9.444    -9.443     0.001     (0)  
   ZnCl+           1.543e-10   1.420e-10    -9.812    -9.848    -0.036    -13.88
   ZnOHCl          2.701e-11   2.705e-11   -10.569   -10.568     0.001     (0)  
   Zn(SO4)2-2      4.775e-13   3.330e-13   -12.321   -12.478    -0.157     44.57
   ZnCl2           6.554e-14   6.563e-14   -13.183   -13.183     0.001    102.03
   Zn(OH)3-        1.919e-14   1.766e-14   -13.717   -13.753    -0.036     (0)  
   ZnCl3-          3.534e-17   3.252e-17   -16.452   -16.488    -0.036     16.98
   Zn(OH)4-2       6.043e-20   4.335e-20   -19.219   -19.363    -0.144     (0)  
   ZnCl4-2         9.965e-21   7.196e-21   -20.002   -20.143    -0.141    145.36

------------------------------Saturation indices-------------------------------

  Phase               SI** log IAP   log K(298 K,   1 atm)

  Al(OH)3(a)       -1.12      9.68   10.80  Al(OH)3
  AlOHSO4          -5.86     -8.06   -2.20  AlOHSO4
  Alunite          -2.41     -3.81   -1.40  KAl3(SO4)2(OH)6
  Anhydrite        -2.11     -6.43   -4.31  CaSO4
  Aragonite        -0.55     -8.89   -8.34  CaCO3
  Arcanite        -10.60    -12.48   -1.88  K2SO4
  Calcite          -0.44     -8.89   -8.45  CaCO3
  CO2(g)           -2.05     -3.52   -1.47  CO2
  Dolomite         -1.24    -18.32  -17.08  CaMg(CO3)2
  Epsomite         -5.23     -6.97   -1.74  MgSO4:7H2O
  Fe(OH)3           0.69      5.58    4.89  Fe(OH)3
  Fe(OH)3(a)        0.69      5.58    4.89  Fe(OH)3
  Gibbsite          1.57      9.68    8.11  Al(OH)3
  Goethite          6.58      5.58   -1.00  FeOOH
  Gypsum           -1.88     -6.43   -4.55  CaSO4:2H2O
  H2(g)           -22.43    -25.53   -3.10  H2
  H2O(g)           -1.50     -0.00    1.50  H2O
  Halite           -7.98     -6.41    1.57  NaCl
  Hausmannite     -17.21     43.82   61.03  Mn3O4
  Hematite         15.17     11.17   -4.01  Fe2O3
  Hexahydrite      -5.40     -6.97   -1.57  MgSO4:6H2O
  Jarosite-K       -6.88    -16.09   -9.21  KFe3(SO4)2(OH)6
  Kieserite        -5.80     -6.97   -1.16  MgSO4:H2O
  Manganite        -7.00     18.34   25.34  MnOOH
  Melanterite      -8.11    -10.32   -2.21  FeSO4:7H2O
  Mirabilite       -8.76     -9.46   -0.71  Na2SO4:10H2O
  MnO2            -11.85     29.53   41.38  MnO2
  O2(g)            -1.07     -3.96   -2.89  O2
  Pyrochroite      -8.05      7.15   15.20  Mn(OH)2
  Pyrolusite      -11.85     29.53   41.38  MnO2:H2O
  Rhodochrosite    -1.92    -13.05  -11.13  MnCO3
  Siderite         -1.89    -12.78  -10.89  FeCO3
  Smithsonite      -2.74    -12.74  -10.00  ZnCO3
  Sylvite          -8.82     -7.92    0.90  KCl
  Thenardite      -10.11     -9.46    0.65  Na2SO4
  Zn(OH)2(e)       -4.04      7.46   11.50  Zn(OH)2

**For a gas, SI = log10(fugacity). Fugacity = pressure * phi / 1 atm.
  For ideal gases, phi = 1.

------------------------------------
Beginning of advection calculations.
------------------------------------

Beginning of advection time step 1, cumulative pore volumes 0.200000.
Beginning of advection time step 2, cumulative pore volumes 0.400000.
Beginning of advection time step 3, cumulative pore volumes 0.600000.
Beginning of advection time step 4, cumulative pore volumes 0.800000.
Beginning of advection time step 5, cumulative pore volumes 1.000000.

Cell 1.

Using solution 1.	
Using pure phase assemblage 1.	Pure-phase assemblage after simulation 1.

-------------------------------Phase assemblage--------------------------------

                                                      Moles in assemblage
Phase               SI  log IAP  log K(T, P)   Initial       Final       Delta

Al(OH)3(a)        0.00    10.80     10.80    2.471e-02   1.752e-02  -7.192e-03
AlOHSO4           0.00    -2.20     -2.20    1.770e-02   3.539e-02   1.770e-02
Calcite          -4.92   -13.37     -8.45    0.000e+00           0   0.000e+00
Fe(OH)3           0.00     4.89      4.89    8.231e-01   8.238e-01   7.195e-04
Gypsum            0.00    -4.55     -4.55    1.405e-01   1.418e-01   1.274e-03
MnO2            -16.07    25.31     41.38    0.000e+00           0   0.000e+00

-----------------------------Solution composition------------------------------

	Elements           Molality       Moles

	Al                1.507e-04   1.507e-04
	C                 1.045e-05   1.045e-05
	Ca                1.050e-02   1.050e-02
	Cl                9.640e-03   9.640e-03
	Cu                2.435e-03   2.435e-03
	Fe                5.245e-02   5.245e-02
	K                 2.029e-04   2.029e-04
	Mg                1.603e-02   1.603e-02
	Mn                1.360e-03   1.360e-03
	Na                9.538e-03   9.538e-03
	S                 8.282e-02   8.282e-02
	Zn                3.349e-04   3.348e-04

----------------------------Description of solution----------------------------

                                       pH  =   5.562      Charge balance
                                       pe  =   3.232      Adjusted to redox equilibrium
      Specific Conductance (µS/cm,  25°C)  = 10116
                          Density (g/cm³)  =   1.00887
                               Volume (L)  =   1.00361
                        Viscosity (mPa s)  =   0.91228
                        Activity of water  =   0.998
                 Ionic strength (mol/kgw)  =   1.925e-01
                       Mass of water (kg)  =   1.000e+00
                 Total alkalinity (eq/kg)  =   5.681e-05
                       Total CO2 (mol/kg)  =   1.045e-05
                         Temperature (°C)  =  25.00
                  Electrical balance (eq)  =   2.081e-14
 Percent error, 100*(Cat-|An|)/(Cat+|An|)  =   0.00
                               Iterations  =  12
                                  Total H  = 1.110107e+02
                                  Total O  = 5.583669e+01

----------------------------Distribution of species----------------------------

                                               Log       Log       Log    mole V
   Species          Molality    Activity  Molality  Activity     Gamma   cm³/mol

   H+              3.432e-06   2.743e-06    -5.464    -5.562    -0.097      0.00
   OH-             5.185e-09   3.681e-09    -8.285    -8.434    -0.149     -3.51
   H2O             5.551e+01   9.975e-01     1.744    -0.001     0.000     18.07
Al            1.507e-04
   AlSO4+          7.498e-05   5.486e-05    -4.125    -4.261    -0.136     (0)  
   Al(SO4)2-       3.137e-05   2.295e-05    -4.503    -4.639    -0.136     (0)  
   Al(OH)2+        1.804e-05   1.351e-05    -4.744    -4.870    -0.126     (0)  
   AlOH+2          1.510e-05   4.737e-06    -4.821    -5.324    -0.503    -26.94
   Al+3            9.871e-06   1.311e-06    -5.006    -5.882    -0.877    -40.84
   Al(OH)3         6.924e-07   7.238e-07    -6.160    -6.140     0.019     (0)  
   Al(OH)4-        6.782e-07   4.962e-07    -6.169    -6.304    -0.136     (0)  
   AlHSO4+2        4.260e-11   1.334e-11   -10.371   -10.875    -0.504     (0)  
C(-4)         0.000e+00
   CH4             0.000e+00   0.000e+00   -51.116   -51.097     0.019     35.46
C(4)          1.045e-05
   CO2             7.007e-06   7.215e-06    -5.154    -5.142     0.013     34.79
   HCO3-           1.554e-06   1.167e-06    -5.809    -5.933    -0.124     25.90
   FeHCO3+         1.550e-06   1.159e-06    -5.810    -5.936    -0.126     (0)  
   CuHCO3+         1.876e-07   1.404e-07    -6.727    -6.853    -0.126     (0)  
   MnHCO3+         5.607e-08   4.156e-08    -7.251    -7.381    -0.130     (0)  
   MgHCO3+         4.691e-08   3.383e-08    -7.329    -7.471    -0.142      5.71
   CuCO3           2.460e-08   2.572e-08    -7.609    -7.590     0.019     (0)  
   ZnHCO3+         1.164e-08   8.705e-09    -7.934    -8.060    -0.126     (0)  
   FeCO3           4.549e-09   4.755e-09    -8.342    -8.323     0.019     (0)  
   NaHCO3          3.454e-09   3.693e-09    -8.462    -8.433     0.029     17.66
   MnCO3           6.059e-10   6.334e-10    -9.218    -9.198     0.019     (0)  
   ZnCO3           2.257e-10   2.359e-10    -9.647    -9.627     0.019     (0)  
   CaCO3           6.888e-11   7.200e-11   -10.162   -10.143     0.019    -14.60
   CO3-2           6.360e-11   1.996e-11   -10.197   -10.700    -0.503     -2.65
   KHCO3           6.148e-11   6.427e-11   -10.211   -10.192     0.019     21.42
   MgCO3           4.514e-11   4.718e-11   -10.345   -10.326     0.019    -17.09
   (CO2)2          8.219e-13   8.463e-13   -12.085   -12.072     0.013     68.75
   CaHCO3+         2.897e-13   2.197e-13   -12.538   -12.658    -0.120      9.87
   Cu(CO3)2-2      2.064e-15   6.462e-16   -14.685   -15.190    -0.504     (0)  
   Zn(CO3)2-2      3.215e-16   1.007e-16   -15.493   -15.997    -0.504     (0)  
Ca            1.050e-02
   Ca+2            6.612e-03   2.147e-03    -2.180    -2.668    -0.488    -17.22
   CaSO4           3.885e-03   3.963e-03    -2.411    -2.402     0.009      7.22
   CaHSO4+         1.217e-07   9.107e-08    -6.915    -7.041    -0.126     (0)  
   CaOH+           1.733e-10   1.296e-10    -9.761    -9.887    -0.126     (0)  
   CaCO3           6.888e-11   7.200e-11   -10.162   -10.143     0.019    -14.60
   CaHCO3+         2.897e-13   2.197e-13   -12.538   -12.658    -0.120      9.87
Cl            9.640e-03
   Cl-             7.555e-03   5.428e-03    -2.122    -2.265    -0.144     18.45
   CuCl2-          9.542e-04   6.881e-04    -3.020    -3.162    -0.142     (0)  
   FeCl+           9.948e-05   7.441e-05    -4.002    -4.128    -0.126     (0)  
   CuCl3-2         1.961e-05   5.920e-06    -4.708    -5.228    -0.520     (0)  
   MnCl+           1.192e-05   8.834e-06    -4.924    -5.054    -0.130     -2.88
   CuCl+           4.860e-06   3.505e-06    -5.313    -5.455    -0.142      1.13
   ZnCl+           1.200e-06   8.654e-07    -5.921    -6.063    -0.142    -14.35
   MnCl2           2.002e-08   2.093e-08    -7.699    -7.679     0.019     85.89
   CuCl2           9.774e-09   1.022e-08    -8.010    -7.991     0.019     31.02
   ZnCl2           4.705e-09   4.918e-09    -8.327    -8.308     0.019    102.03
   HCl             4.246e-09   5.128e-09    -8.372    -8.290     0.082     20.36
   ZnOHCl          3.704e-09   3.872e-09    -8.431    -8.412     0.019     (0)  
   MnCl3-          4.221e-11   3.129e-11   -10.375   -10.505    -0.130     44.22
   ZnCl3-          4.153e-11   2.995e-11   -10.382   -10.524    -0.142     15.88
   FeCl+2          8.780e-13   2.650e-13   -12.057   -12.577    -0.520     (0)  
   CuCl3-          2.728e-13   1.968e-13   -12.564   -12.706    -0.142     (0)  
   ZnCl4-2         2.699e-13   8.147e-14   -12.569   -13.089    -0.520    147.32
   FeCl2+          8.668e-15   6.425e-15   -14.062   -14.192    -0.130     (0)  
   CuCl4-2         1.773e-17   5.352e-18   -16.751   -17.271    -0.520     (0)  
   FeCl3           3.336e-18   3.487e-18   -17.477   -17.458     0.019     (0)  
Cu(1)         1.082e-03
   CuCl2-          9.542e-04   6.881e-04    -3.020    -3.162    -0.142     (0)  
   Cu+             1.079e-04   7.387e-05    -3.967    -4.132    -0.164     (0)  
   CuCl3-2         1.961e-05   5.920e-06    -4.708    -5.228    -0.520     (0)  
Cu(2)         1.354e-03
   Cu+2            7.246e-04   2.399e-04    -3.140    -3.620    -0.480    -25.77
   CuSO4           6.200e-04   6.481e-04    -3.208    -3.188     0.019     13.09
   CuCl+           4.860e-06   3.505e-06    -5.313    -5.455    -0.142      1.13
   CuOH+           1.210e-06   8.727e-07    -5.917    -6.059    -0.142     (0)  
   Cu2(OH)2+2      1.064e-06   3.333e-07    -5.973    -6.477    -0.504     (0)  
   Cu(OH)2         6.345e-07   6.632e-07    -6.198    -6.178     0.019     (0)  
   CuHCO3+         1.876e-07   1.404e-07    -6.727    -6.853    -0.126     (0)  
   CuCO3           2.460e-08   2.572e-08    -7.609    -7.590     0.019     (0)  
   CuCl2           9.774e-09   1.022e-08    -8.010    -7.991     0.019     31.02
   CuCl3-          2.728e-13   1.968e-13   -12.564   -12.706    -0.142     (0)  
   Cu(OH)3-        1.943e-14   1.454e-14   -13.712   -13.838    -0.126     (0)  
   Cu(CO3)2-2      2.064e-15   6.462e-16   -14.685   -15.190    -0.504     (0)  
   CuCl4-2         1.773e-17   5.352e-18   -16.751   -17.271    -0.520     (0)  
   Cu(OH)4-2       3.369e-21   1.055e-21   -20.473   -20.977    -0.504     (0)  
   Cu(HS)3-        0.000e+00   0.000e+00  -109.995  -110.121    -0.126     (0)  
Fe(2)         5.245e-02
   Fe+2            2.999e-02   9.932e-03    -1.523    -2.003    -0.480    -21.26
   FeSO4           2.235e-02   2.337e-02    -1.651    -1.631     0.019     30.28
   FeCl+           9.948e-05   7.441e-05    -4.002    -4.128    -0.126     (0)  
   FeHCO3+         1.550e-06   1.159e-06    -5.810    -5.936    -0.126     (0)  
   FeOH+           1.541e-06   1.142e-06    -5.812    -5.942    -0.130     (0)  
   FeHSO4+         5.631e-07   4.212e-07    -6.249    -6.375    -0.126     (0)  
   FeCO3           4.549e-09   4.755e-09    -8.342    -8.323     0.019     (0)  
   Fe(OH)2         3.383e-12   3.537e-12   -11.471   -11.451     0.019     (0)  
   Fe(OH)3-        6.448e-17   4.779e-17   -16.191   -16.321    -0.130     (0)  
   Fe(HS)2         0.000e+00   0.000e+00   -81.340   -81.321     0.019     (0)  
   Fe(HS)3-        0.000e+00   0.000e+00  -123.291  -123.417    -0.126     (0)  
Fe(3)         6.445e-07
   Fe(OH)2+        6.110e-07   4.573e-07    -6.214    -6.340    -0.126     (0)  
   Fe(OH)3         2.050e-08   2.143e-08    -7.688    -7.669     0.019     (0)  
   FeOH+2          1.258e-08   3.797e-09    -7.900    -8.421    -0.520     (0)  
   FeSO4+          3.164e-10   2.345e-10    -9.500    -9.630    -0.130     (0)  
   Fe(SO4)2-       9.075e-11   6.788e-11   -10.042   -10.168    -0.126     (0)  
   Fe+3            1.217e-11   1.617e-12   -10.915   -11.791    -0.877     (0)  
   Fe(OH)4-        9.497e-12   7.108e-12   -11.022   -11.148    -0.126     (0)  
   FeCl+2          8.780e-13   2.650e-13   -12.057   -12.577    -0.520     (0)  
   Fe2(OH)2+4      4.037e-14   3.881e-16   -13.394   -15.411    -2.017     (0)  
   FeCl2+          8.668e-15   6.425e-15   -14.062   -14.192    -0.130     (0)  
   FeHSO4+2        5.501e-15   1.722e-15   -14.260   -14.764    -0.504     (0)  
   Fe3(OH)4+5      5.260e-17   3.708e-20   -16.279   -19.431    -3.152     (0)  
   FeCl3           3.336e-18   3.487e-18   -17.477   -17.458     0.019     (0)  
H(0)          3.498e-21
   H2              1.749e-21   1.832e-21   -20.757   -20.737     0.020     14.99
K             2.029e-04
   K+              1.725e-04   1.233e-04    -3.763    -3.909    -0.146      9.34
   KSO4-           3.048e-05   2.481e-05    -4.516    -4.605    -0.089     28.43
   KHCO3           6.148e-11   6.427e-11   -10.211   -10.192     0.019     21.42
Mg            1.603e-02
   MgSO4           7.853e-03   8.581e-03    -2.105    -2.066     0.038     -0.40
   Mg+2            7.158e-03   2.477e-03    -2.145    -2.606    -0.461    -20.93
   Mg(SO4)2-2      1.022e-03   3.739e-04    -2.991    -3.427    -0.437     44.97
   MgHCO3+         4.691e-08   3.383e-08    -7.329    -7.471    -0.142      5.71
   MgOH+           4.269e-09   3.272e-09    -8.370    -8.485    -0.116     (0)  
   MgCO3           4.514e-11   4.718e-11   -10.345   -10.326     0.019    -17.09
Mn(2)         1.360e-03
   Mn+2            1.206e-03   3.995e-04    -2.918    -3.398    -0.480    -17.58
   MnSO4           1.412e-04   1.352e-04    -3.850    -3.869    -0.019     17.15
   MnCl+           1.192e-05   8.834e-06    -4.924    -5.054    -0.130     -2.88
   MnHCO3+         5.607e-08   4.156e-08    -7.251    -7.381    -0.130     (0)  
   MnCl2           2.002e-08   2.093e-08    -7.699    -7.679     0.019     85.89
   MnOH+           5.039e-09   3.735e-09    -8.298    -8.428    -0.130     (0)  
   MnCO3           6.059e-10   6.334e-10    -9.218    -9.198     0.019     (0)  
   MnCl3-          4.221e-11   3.129e-11   -10.375   -10.505    -0.130     44.22
   Mn(OH)3-        4.111e-22   3.047e-22   -21.386   -21.516    -0.130     (0)  
Mn(3)         1.584e-25
   Mn+3            1.584e-25   2.105e-26   -24.800   -25.677    -0.877     (0)  
Na            9.538e-03
   Na+             8.539e-03   6.402e-03    -2.069    -2.194    -0.125     -0.94
   NaSO4-          9.992e-04   7.440e-04    -3.000    -3.128    -0.128     19.12
   NaHCO3          3.454e-09   3.693e-09    -8.462    -8.433     0.029     17.66
   Na2SO4          2.233e-09   2.322e-09    -8.651    -8.634     0.017     47.96
O(0)          0.000e+00
   O2              0.000e+00   0.000e+00   -50.910   -50.891     0.019     30.40
S(-2)         0.000e+00
   H2S             0.000e+00   0.000e+00   -42.773   -42.754     0.019     36.27
   HS-             0.000e+00   0.000e+00   -43.985   -44.134    -0.149     20.99
   S-2             0.000e+00   0.000e+00   -50.970   -51.490    -0.520     (0)  
   Zn(HS)2         0.000e+00   0.000e+00   -77.574   -77.555     0.019     (0)  
   Fe(HS)2         0.000e+00   0.000e+00   -81.340   -81.321     0.019     (0)  
   (H2S)2          0.000e+00   0.000e+00   -86.806   -86.786     0.019     30.09
   Cu(HS)3-        0.000e+00   0.000e+00  -109.995  -110.121    -0.126     (0)  
   Zn(HS)3-        0.000e+00   0.000e+00  -120.403  -120.529    -0.126     (0)  
   Fe(HS)3-        0.000e+00   0.000e+00  -123.291  -123.417    -0.126     (0)  
S(6)          8.282e-02
   SO4-2           4.461e-02   1.323e-02    -1.351    -1.878    -0.528     15.51
   FeSO4           2.235e-02   2.337e-02    -1.651    -1.631     0.019     30.28
   MgSO4           7.853e-03   8.581e-03    -2.105    -2.066     0.038     -0.40
   CaSO4           3.885e-03   3.963e-03    -2.411    -2.402     0.009      7.22
   Mg(SO4)2-2      1.022e-03   3.739e-04    -2.991    -3.427    -0.437     44.97
   NaSO4-          9.992e-04   7.440e-04    -3.000    -3.128    -0.128     19.12
   CuSO4           6.200e-04   6.481e-04    -3.208    -3.188     0.019     13.09
   MnSO4           1.412e-04   1.352e-04    -3.850    -3.869    -0.019     17.15
   ZnSO4           1.364e-04   1.426e-04    -3.865    -3.846     0.019      6.48
   AlSO4+          7.498e-05   5.486e-05    -4.125    -4.261    -0.136     (0)  
   Al(SO4)2-       3.137e-05   2.295e-05    -4.503    -4.639    -0.136     (0)  
   KSO4-           3.048e-05   2.481e-05    -4.516    -4.605    -0.089     28.43
   HSO4-           4.716e-06   3.528e-06    -5.326    -5.453    -0.126     40.64
   Zn(SO4)2-2      9.361e-07   1.465e-07    -6.029    -6.834    -0.806     45.28
   FeHSO4+         5.631e-07   4.212e-07    -6.249    -6.375    -0.126     (0)  
   CaHSO4+         1.217e-07   9.107e-08    -6.915    -7.041    -0.126     (0)  
   Na2SO4          2.233e-09   2.322e-09    -8.651    -8.634     0.017     47.96
   FeSO4+          3.164e-10   2.345e-10    -9.500    -9.630    -0.130     (0)  
   Fe(SO4)2-       9.075e-11   6.788e-11   -10.042   -10.168    -0.126     (0)  
   AlHSO4+2        4.260e-11   1.334e-11   -10.371   -10.875    -0.504     (0)  
   FeHSO4+2        5.501e-15   1.722e-15   -14.260   -14.764    -0.504     (0)  
Zn            3.349e-04
   Zn+2            1.962e-04   5.924e-05    -3.707    -4.227    -0.520    -24.50
   ZnSO4           1.364e-04   1.426e-04    -3.865    -3.846     0.019      6.48
   ZnCl+           1.200e-06   8.654e-07    -5.921    -6.063    -0.142    -14.35
   Zn(SO4)2-2      9.361e-07   1.465e-07    -6.029    -6.834    -0.806     45.28
   ZnOH+           3.158e-08   2.362e-08    -7.501    -7.627    -0.126     (0)  
   ZnHCO3+         1.164e-08   8.705e-09    -7.934    -8.060    -0.126     (0)  
   ZnCl2           4.705e-09   4.918e-09    -8.327    -8.308     0.019    102.03
   ZnOHCl          3.704e-09   3.872e-09    -8.431    -8.412     0.019     (0)  
   ZnCO3           2.257e-10   2.359e-10    -9.647    -9.627     0.019     (0)  
   Zn(OH)2         9.438e-11   9.866e-11   -10.025   -10.006     0.019     (0)  
   ZnCl3-          4.153e-11   2.995e-11   -10.382   -10.524    -0.142     15.88
   ZnCl4-2         2.699e-13   8.147e-14   -12.569   -13.089    -0.520    147.32
   Zn(CO3)2-2      3.215e-16   1.007e-16   -15.493   -15.997    -0.504     (0)  
   Zn(OH)3-        1.517e-16   1.135e-16   -15.819   -15.945    -0.126     (0)  
   Zn(OH)4-2       2.089e-23   6.542e-24   -22.680   -23.184    -0.504     (0)  
   Zn(HS)2         0.000e+00   0.000e+00   -77.574   -77.555     0.019     (0)  
   Zn(HS)3-        0.000e+00   0.000e+00  -120.403  -120.529    -0.126     (0)  

------------------------------Saturation indices-------------------------------

  Phase               SI** log IAP   log K(298 K,   1 atm)

  Al(OH)3(a)        0.00     10.80   10.80  Al(OH)3
  AlOHSO4           0.00     -2.20   -2.20  AlOHSO4
  Alunite           9.45      8.05   -1.40  KAl3(SO4)2(OH)6
  Anhydrite        -0.23     -4.55   -4.31  CaSO4
  Aragonite        -5.03    -13.37   -8.34  CaCO3
  Arcanite         -7.82     -9.70   -1.88  K2SO4
  Calcite          -4.92    -13.37   -8.45  CaCO3
  CH4(g)          -48.30    -51.10   -2.80  CH4
  CO2(g)           -3.67     -5.14   -1.47  CO2
  Dolomite         -9.59    -26.67  -17.08  CaMg(CO3)2
  Epsomite         -2.75     -4.49   -1.74  MgSO4:7H2O
  Fe(OH)3           0.00      4.89    4.89  Fe(OH)3
  Fe(OH)3(a)        0.00      4.89    4.89  Fe(OH)3
  FeS(ppt)        -36.66    -40.57   -3.92  FeS
  Gibbsite          2.69     10.80    8.11  Al(OH)3
  Goethite          5.89      4.89   -1.00  FeOOH
  Gypsum            0.00     -4.55   -4.55  CaSO4:2H2O
  H2(g)           -17.64    -20.74   -3.10  H2
  H2O(g)           -1.50     -0.00    1.50  H2O
  H2S(g)          -41.76    -49.70   -7.94  H2S
  Halite           -6.03     -4.46    1.57  NaCl
  Hausmannite     -20.27     40.76   61.03  Mn3O4
  Hematite         13.79      9.79   -4.01  Fe2O3
  Hexahydrite      -2.92     -4.49   -1.57  MgSO4:6H2O
  Jarosite-K       -0.47     -9.68   -9.21  KFe3(SO4)2(OH)6
  Kieserite        -3.32     -4.49   -1.16  MgSO4:H2O
  Mackinawite     -35.93    -40.57   -4.65  FeS
  Manganite        -8.82     16.52   25.34  MnOOH
  Melanterite      -1.68     -3.89   -2.21  FeSO4:7H2O
  Mirabilite       -5.57     -6.28   -0.71  Na2SO4:10H2O
  MnO2            -16.07     25.31   41.38  MnO2
  O2(g)           -48.00    -50.89   -2.89  O2
  Pyrite          -54.20    -72.68  -18.48  FeS2
  Pyrochroite      -7.48      7.72   15.20  Mn(OH)2
  Pyrolusite      -16.07     25.31   41.38  MnO2:H2O
  Rhodochrosite    -2.97    -14.10  -11.13  MnCO3
  Siderite         -1.81    -12.70  -10.89  FeCO3
  Smithsonite      -4.93    -14.93  -10.00  ZnCO3
  Sphalerite      -31.18    -42.80  -11.62  ZnS
  Sulfur          -30.05    -25.17    4.88  S
  Sylvite          -7.07     -6.17    0.90  KCl
  Thenardite       -6.92     -6.27    0.65  Na2SO4
  Zn(OH)2(e)       -4.61      6.89   11.50  Zn(OH)2

**For a gas, SI = log10(fugacity). Fugacity = pressure * phi / 1 atm.
  For ideal gases, phi = 1.


Cell 2.

Using solution 2.	Solution after simulation 1.
Using pure phase assemblage 2.	Pure-phase assemblage after simulation 1.

-------------------------------Phase assemblage--------------------------------

                                                      Moles in assemblage
Phase               SI  log IAP  log K(T, P)   Initial       Final       Delta

Al(OH)3(a)        0.00    10.80     10.80    3.168e-05   1.720e-04   1.403e-04
AlOHSO4          -2.22    -4.42     -2.20    0.000e+00           0   0.000e+00
Calcite           0.00    -8.45     -8.45    9.506e-02   7.421e-02  -2.086e-02
Fe(OH)3           0.00     4.89      4.89    7.971e-01   8.179e-01   2.074e-02
Gypsum            0.00    -4.55     -4.55    4.201e-02   6.216e-02   2.015e-02
MnO2            -16.89    24.49     41.38    9.703e-03           0  -9.703e-03

-----------------------------Solution composition------------------------------

	Elements           Molality       Moles

	Al                1.043e-05   1.042e-05
	C                 2.090e-02   2.087e-02
	Ca                1.122e-02   1.120e-02
	Cl                9.654e-03   9.640e-03
	Cu                2.439e-03   2.435e-03
	Fe                3.175e-02   3.171e-02
	K                 2.032e-04   2.029e-04
	Mg                1.606e-02   1.603e-02
	Mn                1.108e-02   1.106e-02
	Na                9.552e-03   9.538e-03
	S                 6.276e-02   6.267e-02
	Zn                3.353e-04   3.348e-04

----------------------------Description of solution----------------------------

                                       pH  =   6.644      Charge balance
                                       pe  =   0.248      Adjusted to redox equilibrium
      Specific Conductance (µS/cm,  25°C)  = 9042
                          Density (g/cm³)  =   1.00753
                               Volume (L)  =   1.00219
                        Viscosity (mPa s)  =   0.91205
                        Activity of water  =   0.998
                 Ionic strength (mol/kgw)  =   1.704e-01
                       Mass of water (kg)  =   9.985e-01
                 Total alkalinity (eq/kg)  =   1.796e-02
                       Total CO2 (mol/kg)  =   2.090e-02
                         Temperature (°C)  =  25.00
                  Electrical balance (eq)  =   3.391e-14
 Percent error, 100*(Cat-|An|)/(Cat+|An|)  =   0.00
                               Iterations  =  13
                                  Total H  = 1.108675e+02
                                  Total O  = 5.573511e+01

----------------------------Distribution of species----------------------------

                                               Log       Log       Log    mole V
   Species          Molality    Activity  Molality  Activity     Gamma   cm³/mol

   H+              2.824e-07   2.270e-07    -6.549    -6.644    -0.095      0.00
   OH-             6.181e-08   4.449e-08    -7.209    -7.352    -0.143     -3.56
   H2O             5.551e+01   9.977e-01     1.744    -0.001     0.000     18.07
Al            1.043e-05
   Al(OH)4-        8.103e-06   5.996e-06    -5.091    -5.222    -0.131     (0)  
   Al(OH)2+        1.478e-06   1.118e-06    -5.830    -5.952    -0.122     (0)  
   Al(OH)3         6.959e-07   7.238e-07    -6.157    -6.140     0.017     (0)  
   AlOH+2          9.937e-08   3.244e-08    -7.003    -7.489    -0.486    -26.97
   AlSO4+          3.666e-08   2.713e-08    -7.436    -7.567    -0.131     (0)  
   Al(SO4)2-       1.339e-08   9.908e-09    -7.873    -8.004    -0.131     (0)  
   Al+3            5.301e-09   7.430e-10    -8.276    -9.129    -0.853    -40.89
   AlHSO4+2        1.695e-15   5.460e-16   -14.771   -15.263    -0.492     (0)  
C(-4)         6.200e-34
   CH4             6.200e-34   6.448e-34   -33.208   -33.191     0.017     35.46
C(4)          2.090e-02
   HCO3-           9.253e-03   7.016e-03    -2.034    -2.154    -0.120     25.79
   FeHCO3+         5.044e-03   3.801e-03    -2.297    -2.420    -0.123     (0)  
   CO2             3.497e-03   3.589e-03    -2.456    -2.445     0.011     34.79
   MnHCO3+         2.208e-03   1.654e-03    -2.656    -2.781    -0.125     (0)  
   MgHCO3+         2.997e-04   2.189e-04    -3.523    -3.660    -0.137      5.70
   MnCO3           2.929e-04   3.046e-04    -3.533    -3.516     0.017     (0)  
   FeCO3           1.811e-04   1.884e-04    -3.742    -3.725     0.017     (0)  
   ZnHCO3+         5.860e-05   4.415e-05    -4.232    -4.355    -0.123     (0)  
   NaHCO3          2.136e-05   2.266e-05    -4.670    -4.645     0.026     17.66
   ZnCO3           1.390e-05   1.446e-05    -4.857    -4.840     0.017     (0)  
   CuCO3           7.214e-06   7.503e-06    -5.142    -5.125     0.017     (0)  
   CaCO3           5.758e-06   5.989e-06    -5.240    -5.223     0.017    -14.60
   CuHCO3+         4.498e-06   3.389e-06    -5.347    -5.470    -0.123     (0)  
   CO3-2           4.440e-06   1.450e-06    -5.353    -5.839    -0.486     -2.78
   MgCO3           3.546e-06   3.688e-06    -5.450    -5.433     0.017    -17.09
   Zn(CO3)2-2      1.391e-06   4.481e-07    -5.857    -6.349    -0.492     (0)  
   KHCO3           3.828e-07   3.981e-07    -6.417    -6.400     0.017     21.42
   (CO2)2          2.040e-07   2.094e-07    -6.690    -6.679     0.011     68.75
   Cu(CO3)2-2      4.249e-08   1.369e-08    -7.372    -7.864    -0.492     (0)  
   CaHCO3+         1.976e-09   1.513e-09    -8.704    -8.820    -0.116      9.87
Ca            1.122e-02
   Ca+2            7.322e-03   2.459e-03    -2.135    -2.609    -0.474    -17.27
   CaSO4           3.893e-03   3.962e-03    -2.410    -2.402     0.008      7.22
   CaCO3           5.758e-06   5.989e-06    -5.240    -5.223     0.017    -14.60
   CaHSO4+         1.000e-08   7.535e-09    -8.000    -8.123    -0.123     (0)  
   CaOH+           2.381e-09   1.794e-09    -8.623    -8.746    -0.123     (0)  
   CaHCO3+         1.976e-09   1.513e-09    -8.704    -8.820    -0.116      9.87
Cl            9.654e-03
   Cl-             5.503e-03   4.003e-03    -2.259    -2.398    -0.138     18.43
   CuCl2-          1.982e-03   1.448e-03    -2.703    -2.839    -0.137     (0)  
   MnCl+           5.760e-05   4.315e-05    -4.240    -4.365    -0.125     -2.89
   FeCl+           3.973e-05   2.994e-05    -4.401    -4.524    -0.123     (0)  
   CuCl3-2         2.917e-05   9.185e-06    -4.535    -5.037    -0.502     (0)  
   ZnCl+           7.376e-07   5.387e-07    -6.132    -6.269    -0.137    -14.28
   MnCl2           7.250e-08   7.540e-08    -7.140    -7.123     0.017     85.89
   ZnOHCl          2.801e-08   2.913e-08    -7.553    -7.536     0.017     (0)  
   CuCl+           1.422e-08   1.039e-08    -7.847    -7.984    -0.137      1.09
   ZnCl2           2.171e-09   2.258e-09    -8.663    -8.646     0.017    102.03
   HCl             2.649e-10   3.130e-10    -9.577    -9.504     0.073     20.36
   MnCl3-          1.110e-10   8.314e-11    -9.955   -10.080    -0.125     44.14
   CuCl2           2.147e-11   2.233e-11   -10.668   -10.651     0.017     31.02
   ZnCl3-          1.389e-11   1.014e-11   -10.857   -10.994    -0.137     16.02
   ZnCl4-2         6.465e-14   2.035e-14   -13.189   -13.691    -0.502    147.15
   CuCl3-          4.343e-16   3.172e-16   -15.362   -15.499    -0.137     (0)  
   FeCl+2          3.518e-16   1.108e-16   -15.454   -15.956    -0.502     (0)  
   FeCl2+          2.644e-18   1.981e-18   -17.578   -17.703    -0.125     (0)  
   CuCl4-2         2.021e-20   6.364e-21   -19.694   -20.196    -0.502     (0)  
   FeCl3           7.625e-22   7.930e-22   -21.118   -21.101     0.017     (0)  
Cu(1)         2.422e-03
   CuCl2-          1.982e-03   1.448e-03    -2.703    -2.839    -0.137     (0)  
   Cu+             4.102e-04   2.856e-04    -3.387    -3.544    -0.157     (0)  
   CuCl3-2         2.917e-05   9.185e-06    -4.535    -5.037    -0.502     (0)  
Cu(2)         1.720e-05
   CuCO3           7.214e-06   7.503e-06    -5.142    -5.125     0.017     (0)  
   CuHCO3+         4.498e-06   3.389e-06    -5.347    -5.470    -0.123     (0)  
   Cu+2            2.808e-06   9.638e-07    -5.552    -6.016    -0.464    -25.80
   CuSO4           2.185e-06   2.272e-06    -5.661    -5.644     0.017     13.09
   Cu(OH)2         3.741e-07   3.890e-07    -6.427    -6.410     0.017     (0)  
   CuOH+           5.801e-08   4.236e-08    -7.237    -7.373    -0.137     (0)  
   Cu(CO3)2-2      4.249e-08   1.369e-08    -7.372    -7.864    -0.492     (0)  
   CuCl+           1.422e-08   1.039e-08    -7.847    -7.984    -0.137      1.09
   Cu2(OH)2+2      2.437e-09   7.853e-10    -8.613    -9.105    -0.492     (0)  
   CuCl2           2.147e-11   2.233e-11   -10.668   -10.651     0.017     31.02
   Cu(OH)3-        1.368e-13   1.030e-13   -12.864   -12.987    -0.123     (0)  
   CuCl3-          4.343e-16   3.172e-16   -15.362   -15.499    -0.137     (0)  
   Cu(OH)4-2       2.804e-19   9.037e-20   -18.552   -19.044    -0.492     (0)  
   CuCl4-2         2.021e-20   6.364e-21   -19.694   -20.196    -0.502     (0)  
   Cu(HS)3-        0.000e+00   0.000e+00   -70.189   -70.312    -0.123     (0)  
Fe(2)         3.175e-02
   Fe+2            1.578e-02   5.417e-03    -1.802    -2.266    -0.464    -21.30
   FeSO4           1.070e-02   1.112e-02    -1.971    -1.954     0.017     30.28
   FeHCO3+         5.044e-03   3.801e-03    -2.297    -2.420    -0.123     (0)  
   FeCO3           1.811e-04   1.884e-04    -3.742    -3.725     0.017     (0)  
   FeCl+           3.973e-05   2.994e-05    -4.401    -4.524    -0.123     (0)  
   FeOH+           1.005e-05   7.530e-06    -4.998    -5.123    -0.125     (0)  
   FeHSO4+         2.203e-08   1.660e-08    -7.657    -7.780    -0.123     (0)  
   Fe(OH)2         2.709e-10   2.817e-10    -9.567    -9.550     0.017     (0)  
   Fe(OH)3-        6.142e-14   4.600e-14   -13.212   -13.337    -0.125     (0)  
   Fe(HS)2         0.000e+00   0.000e+00   -53.464   -53.447     0.017     (0)  
   Fe(HS)3-        0.000e+00   0.000e+00   -81.352   -81.475    -0.123     (0)  
Fe(3)         7.087e-08
   Fe(OH)2+        5.007e-08   3.784e-08    -7.300    -7.422    -0.122     (0)  
   Fe(OH)3         2.060e-08   2.143e-08    -7.686    -7.669     0.017     (0)  
   Fe(OH)4-        1.136e-10   8.590e-11    -9.944   -10.066    -0.122     (0)  
   FeOH+2          8.258e-11   2.600e-11   -10.083   -10.585    -0.502     (0)  
   FeSO4+          1.549e-13   1.160e-13   -12.810   -12.936    -0.125     (0)  
   Fe(SO4)2-       3.890e-14   2.931e-14   -13.410   -13.533    -0.123     (0)  
   Fe+3            6.537e-15   9.162e-16   -14.185   -15.038    -0.853     (0)  
   FeCl+2          3.518e-16   1.108e-16   -15.454   -15.956    -0.502     (0)  
   FeCl2+          2.644e-18   1.981e-18   -17.578   -17.703    -0.125     (0)  
   Fe2(OH)2+4      1.688e-18   1.820e-20   -17.773   -19.740    -1.967     (0)  
   FeHSO4+2        2.188e-19   7.051e-20   -18.660   -19.152    -0.492     (0)  
   FeCl3           7.625e-22   7.930e-22   -21.118   -21.101     0.017     (0)  
   Fe3(OH)4+5      1.705e-22   1.439e-25   -21.768   -24.842    -3.074     (0)  
H(0)          2.232e-17
   H2              1.116e-17   1.163e-17   -16.952   -16.934     0.018     14.99
K             2.032e-04
   K+              1.754e-04   1.270e-04    -3.756    -3.896    -0.140      9.32
   KSO4-           2.741e-05   2.232e-05    -4.562    -4.651    -0.089     27.93
   KHCO3           3.828e-07   3.981e-07    -6.417    -6.400     0.017     21.42
Mg            1.606e-02
   Mg+2            7.485e-03   2.666e-03    -2.126    -2.574    -0.448    -20.97
   MgSO4           7.453e-03   8.061e-03    -2.128    -2.094     0.034     -0.40
   Mg(SO4)2-2      8.141e-04   3.066e-04    -3.089    -3.513    -0.424     44.63
   MgHCO3+         2.997e-04   2.189e-04    -3.523    -3.660    -0.137      5.70
   MgCO3           3.546e-06   3.688e-06    -5.450    -5.433     0.017    -17.09
   MgOH+           5.506e-08   4.255e-08    -7.259    -7.371    -0.112     (0)  
Mn(2)         1.108e-02
   Mn+2            7.707e-03   2.646e-03    -2.113    -2.577    -0.464    -17.69
   MnHCO3+         2.208e-03   1.654e-03    -2.656    -2.781    -0.125     (0)  
   MnSO4           8.123e-04   7.817e-04    -3.090    -3.107    -0.017     17.15
   MnCO3           2.929e-04   3.046e-04    -3.533    -3.516     0.017     (0)  
   MnCl+           5.760e-05   4.315e-05    -4.240    -4.365    -0.125     -2.89
   MnOH+           3.990e-07   2.989e-07    -6.399    -6.524    -0.125     (0)  
   MnCl2           7.250e-08   7.540e-08    -7.140    -7.123     0.017     85.89
   MnCl3-          1.110e-10   8.314e-11    -9.955   -10.080    -0.125     44.14
   Mn(OH)3-        4.754e-18   3.561e-18   -17.323   -17.448    -0.125     (0)  
Mn(3)         1.033e-27
   Mn+3            1.033e-27   1.448e-28   -26.986   -27.839    -0.853     (0)  
Na            9.552e-03
   Na+             8.647e-03   6.536e-03    -2.063    -2.185    -0.122     -0.97
   NaSO4-          8.832e-04   6.630e-04    -3.054    -3.178    -0.125     18.95
   NaHCO3          2.136e-05   2.266e-05    -4.670    -4.645     0.026     17.66
   Na2SO4          2.041e-09   2.113e-09    -8.690    -8.675     0.015     47.96
O(0)          0.000e+00
   O2              0.000e+00   0.000e+00   -58.513   -58.496     0.017     30.40
S(-2)         2.837e-30
   H2S             1.642e-30   1.708e-30   -29.785   -29.768     0.017     36.27
   HS-             1.195e-30   8.605e-31   -29.922   -30.065    -0.143     20.96
   S-2             1.454e-36   4.579e-37   -35.837   -36.339    -0.502     (0)  
   Zn(HS)2         0.000e+00   0.000e+00   -49.509   -49.492     0.017     (0)  
   Fe(HS)2         0.000e+00   0.000e+00   -53.464   -53.447     0.017     (0)  
   (H2S)2          0.000e+00   0.000e+00   -60.830   -60.813     0.017     30.09
   Cu(HS)3-        0.000e+00   0.000e+00   -70.189   -70.312    -0.123     (0)  
   Zn(HS)3-        0.000e+00   0.000e+00   -78.274   -78.397    -0.123     (0)  
   Fe(HS)3-        0.000e+00   0.000e+00   -81.352   -81.475    -0.123     (0)  
S(6)          6.276e-02
   SO4-2           3.726e-02   1.155e-02    -1.429    -1.937    -0.509     15.43
   FeSO4           1.070e-02   1.112e-02    -1.971    -1.954     0.017     30.28
   MgSO4           7.453e-03   8.061e-03    -2.128    -2.094     0.034     -0.40
   CaSO4           3.893e-03   3.962e-03    -2.410    -2.402     0.008      7.22
   NaSO4-          8.832e-04   6.630e-04    -3.054    -3.178    -0.125     18.95
   Mg(SO4)2-2      8.141e-04   3.066e-04    -3.089    -3.513    -0.424     44.63
   MnSO4           8.123e-04   7.817e-04    -3.090    -3.107    -0.017     17.15
   ZnSO4           1.010e-04   1.051e-04    -3.996    -3.979     0.017      6.48
   KSO4-           2.741e-05   2.232e-05    -4.562    -4.651    -0.089     27.93
   CuSO4           2.185e-06   2.272e-06    -5.661    -5.644     0.017     13.09
   Zn(SO4)2-2      5.454e-07   9.417e-08    -6.263    -7.026    -0.763     45.24
   HSO4-           3.382e-07   2.548e-07    -6.471    -6.594    -0.123     40.62
   AlSO4+          3.666e-08   2.713e-08    -7.436    -7.567    -0.131     (0)  
   FeHSO4+         2.203e-08   1.660e-08    -7.657    -7.780    -0.123     (0)  
   Al(SO4)2-       1.339e-08   9.908e-09    -7.873    -8.004    -0.131     (0)  
   CaHSO4+         1.000e-08   7.535e-09    -8.000    -8.123    -0.123     (0)  
   Na2SO4          2.041e-09   2.113e-09    -8.690    -8.675     0.015     47.96
   FeSO4+          1.549e-13   1.160e-13   -12.810   -12.936    -0.125     (0)  
   Fe(SO4)2-       3.890e-14   2.931e-14   -13.410   -13.533    -0.123     (0)  
   AlHSO4+2        1.695e-15   5.460e-16   -14.771   -15.263    -0.492     (0)  
   FeHSO4+2        2.188e-19   7.051e-20   -18.660   -19.152    -0.492     (0)  
Zn            3.353e-04
   Zn+2            1.588e-04   4.999e-05    -3.799    -4.301    -0.502    -24.53
   ZnSO4           1.010e-04   1.051e-04    -3.996    -3.979     0.017      6.48
   ZnHCO3+         5.860e-05   4.415e-05    -4.232    -4.355    -0.123     (0)  
   ZnCO3           1.390e-05   1.446e-05    -4.857    -4.840     0.017     (0)  
   Zn(CO3)2-2      1.391e-06   4.481e-07    -5.857    -6.349    -0.492     (0)  
   ZnCl+           7.376e-07   5.387e-07    -6.132    -6.269    -0.137    -14.28
   Zn(SO4)2-2      5.454e-07   9.417e-08    -6.263    -7.026    -0.763     45.24
   ZnOH+           3.198e-07   2.409e-07    -6.495    -6.618    -0.123     (0)  
   ZnOHCl          2.801e-08   2.913e-08    -7.553    -7.536     0.017     (0)  
   Zn(OH)2         1.169e-08   1.216e-08    -7.932    -7.915     0.017     (0)  
   ZnCl2           2.171e-09   2.258e-09    -8.663    -8.646     0.017    102.03
   ZnCl3-          1.389e-11   1.014e-11   -10.857   -10.994    -0.137     16.02
   Zn(OH)3-        2.243e-13   1.690e-13   -12.649   -12.772    -0.123     (0)  
   ZnCl4-2         6.465e-14   2.035e-14   -13.189   -13.691    -0.502    147.15
   Zn(OH)4-2       3.654e-19   1.177e-19   -18.437   -18.929    -0.492     (0)  
   Zn(HS)2         0.000e+00   0.000e+00   -49.509   -49.492     0.017     (0)  
   Zn(HS)3-        0.000e+00   0.000e+00   -78.274   -78.397    -0.123     (0)  

------------------------------Saturation indices-------------------------------

  Phase               SI** log IAP   log K(298 K,   1 atm)

  Al(OH)3(a)        0.00     10.80   10.80  Al(OH)3
  AlOHSO4          -2.22     -4.42   -2.20  AlOHSO4
  Alunite           6.10      4.70   -1.40  KAl3(SO4)2(OH)6
  Anhydrite        -0.23     -4.55   -4.31  CaSO4
  Aragonite        -0.11     -8.45   -8.34  CaCO3
  Arcanite         -7.85     -9.73   -1.88  K2SO4
  Calcite           0.00     -8.45   -8.45  CaCO3
  CH4(g)          -30.39    -33.19   -2.80  CH4
  CO2(g)           -0.98     -2.45   -1.47  CO2
  Dolomite          0.22    -16.86  -17.08  CaMg(CO3)2
  Epsomite         -2.78     -4.52   -1.74  MgSO4:7H2O
  Fe(OH)3           0.00      4.89    4.89  Fe(OH)3
  Fe(OH)3(a)        0.00      4.89    4.89  Fe(OH)3
  FeS(ppt)        -21.77    -25.69   -3.92  FeS
  Gibbsite          2.69     10.80    8.11  Al(OH)3
  Goethite          5.89      4.89   -1.00  FeOOH
  Gypsum            0.00     -4.55   -4.55  CaSO4:2H2O
  H2(g)           -13.84    -16.93   -3.10  H2
  H2O(g)           -1.50     -0.00    1.50  H2O
  H2S(g)          -28.77    -36.71   -7.94  H2S
  Halite           -6.15     -4.58    1.57  NaCl
  Hausmannite     -15.12     45.91   61.03  Mn3O4
  Hematite         13.79      9.79   -4.01  Fe2O3
  Hexahydrite      -2.95     -4.52   -1.57  MgSO4:6H2O
  Jarosite-K       -3.82    -13.03   -9.21  KFe3(SO4)2(OH)6
  Kieserite        -3.35     -4.51   -1.16  MgSO4:H2O
  Mackinawite     -21.04    -25.69   -4.65  FeS
  Manganite        -7.74     17.60   25.34  MnOOH
  Melanterite      -2.00     -4.21   -2.21  FeSO4:7H2O
  Mirabilite       -5.61     -6.32   -0.71  Na2SO4:10H2O
  MnO2            -16.89     24.49   41.38  MnO2
  O2(g)           -55.60    -58.50   -2.89  O2
  Pyrite          -30.13    -48.61  -18.48  FeS2
  Pyrochroite      -4.49     10.71   15.20  Mn(OH)2
  Pyrolusite      -16.89     24.49   41.38  MnO2:H2O
  Rhodochrosite     2.71     -8.42  -11.13  MnCO3
  Siderite          2.79     -8.10  -10.89  FeCO3
  Smithsonite      -0.14    -10.14  -10.00  ZnCO3
  Sphalerite      -16.10    -27.72  -11.62  ZnS
  Sulfur          -20.87    -15.98    4.88  S
  Sylvite          -7.19     -6.29    0.90  KCl
  Thenardite       -6.96     -6.31    0.65  Na2SO4
  Zn(OH)2(e)       -2.52      8.98   11.50  Zn(OH)2

**For a gas, SI = log10(fugacity). Fugacity = pressure * phi / 1 atm.
  For ideal gases, phi = 1.


Cell 3.

Using solution 3.	Solution after simulation 1.
Using pure phase assemblage 3.	Pure-phase assemblage after simulation 1.

-------------------------------Phase assemblage--------------------------------

                                                      Moles in assemblage
Phase               SI  log IAP  log K(T, P)   Initial       Final       Delta

Al(OH)3(a)        0.00    10.80     10.80    0.000e+00           0   0.000e+00
AlOHSO4          -1.36    -3.56     -2.20    0.000e+00           0   0.000e+00
Calcite           0.00    -8.45     -8.45    1.398e-01   1.398e-01   2.692e-15
Fe(OH)3           0.00     4.89      4.89    7.300e-01   7.300e-01   0.000e+00
Gypsum            0.00    -4.55     -4.55    1.095e-14   8.634e-15  -2.315e-15
MnO2              0.00    41.38     41.38    4.500e-02   4.500e-02  -2.887e-15

-----------------------------Solution composition------------------------------

	Elements           Molality       Moles

	Al                9.898e-06   9.857e-06
	C                 6.186e-02   6.160e-02
	Ca                1.300e-02   1.294e-02
	Cl                9.680e-03   9.640e-03
	Cu                2.446e-03   2.435e-03
	Fe                1.744e-07   1.736e-07
	K                 2.038e-04   2.029e-04
	Mg                1.610e-02   1.603e-02
	Mn                2.824e-02   2.813e-02
	Na                9.578e-03   9.538e-03
	S                 4.154e-02   4.136e-02
	Zn                3.363e-04   3.348e-04

----------------------------Description of solution----------------------------

                                       pH  =   6.156      Charge balance
                                       pe  =   9.508      Adjusted to redox equilibrium
      Specific Conductance (µS/cm,  25°C)  = 8281
                          Density (g/cm³)  =   1.00602
                               Volume (L)  =   1.00028
                        Viscosity (mPa s)  =   0.91310
                        Activity of water  =   0.997
                 Ionic strength (mol/kgw)  =   1.498e-01
                       Mass of water (kg)  =   9.958e-01
                 Total alkalinity (eq/kg)  =   3.730e-02
                       Total CO2 (mol/kg)  =   6.186e-02
                         Temperature (°C)  =  25.00
                  Electrical balance (eq)  =   1.404e-12
 Percent error, 100*(Cat-|An|)/(Cat+|An|)  =   0.00
                               Iterations  =   1
                                  Total H  = 1.105810e+02
                                  Total O  = 5.559772e+01

----------------------------Distribution of species----------------------------

                                               Log       Log       Log    mole V
   Species          Molality    Activity  Molality  Activity     Gamma   cm³/mol

   H+              8.621e-07   6.975e-07    -6.064    -6.156    -0.092      0.00
   OH-             1.982e-08   1.447e-08    -7.703    -7.839    -0.137     -3.61
   H2O             5.551e+01   9.974e-01     1.744    -0.001     0.000     18.07
Al            9.898e-06
   Al(OH)2+        4.498e-06   3.435e-06    -5.347    -5.464    -0.117     (0)  
   Al(OH)4-        2.605e-06   1.951e-06    -5.584    -5.710    -0.126     (0)  
   AlOH+2          9.008e-07   3.065e-07    -6.045    -6.514    -0.468    -27.01
   AlSO4+          8.180e-07   6.126e-07    -6.087    -6.213    -0.126     (0)  
   Al(OH)3         6.992e-07   7.238e-07    -6.155    -6.140     0.015     (0)  
   Al(SO4)2-       2.323e-07   1.739e-07    -6.634    -6.760    -0.126     (0)  
   Al+3            1.454e-07   2.158e-08    -6.837    -7.666    -0.829    -40.94
   AlHSO4+2        1.138e-13   3.789e-14   -12.944   -13.422    -0.478     (0)  
C(-4)         0.000e+00
   CH4             0.000e+00   0.000e+00  -102.519  -102.504     0.015     35.46
C(4)          6.186e-02
   CO2             2.575e-02   2.634e-02    -1.589    -1.579     0.010     34.79
[...]
  Thenardite       -6.92     -6.26    0.65  Na2SO4
  Zn(OH)2(e)       -5.24      6.26   11.50  Zn(OH)2

**For a gas, SI = log10(fugacity). Fugacity = pressure * phi / 1 atm.
  For ideal gases, phi = 1.


Cell 5.

Using solution 5.	Solution after simulation 1.
Using pure phase assemblage 5.	Pure-phase assemblage after simulation 1.

-------------------------------Phase assemblage--------------------------------

                                                      Moles in assemblage
Phase               SI  log IAP  log K(T, P)   Initial       Final       Delta

Al(OH)3(a)       -0.00    10.80     10.80    1.346e-04   2.445e-04   1.099e-04
AlOHSO4          -3.55    -5.75     -2.20    0.000e+00           0   0.000e+00
Calcite           0.00    -8.45     -8.45    8.204e-02   7.718e-02  -4.861e-03
Fe(OH)3          -0.00     4.89      4.89    8.166e-01   8.179e-01   1.354e-03
Gypsum            0.00    -4.55     -4.55    5.483e-02   5.957e-02   4.731e-03
MnO2            -19.59    21.79     41.38    0.000e+00           0   0.000e+00

-----------------------------Solution composition------------------------------

	Elements           Molality       Moles

	Al                4.084e-05   4.083e-05
	C                 4.873e-03   4.872e-03
	Ca                1.063e-02   1.063e-02
	Cl                9.642e-03   9.640e-03
	Cu                2.436e-03   2.435e-03
	Fe                5.111e-02   5.110e-02
	K                 2.030e-04   2.029e-04
	Mg                1.604e-02   1.603e-02
	Mn                1.360e-03   1.360e-03
	Na                9.541e-03   9.538e-03
	S                 7.811e-02   7.809e-02
	Zn                3.349e-04   3.348e-04

----------------------------Description of solution----------------------------

                                       pH  =   7.332      Charge balance
                                       pe  =  -2.056      Adjusted to redox equilibrium
      Specific Conductance (µS/cm,  25°C)  = 9689
                          Density (g/cm³)  =   1.00865
                               Volume (L)  =   1.00334
                        Viscosity (mPa s)  =   0.91224
                        Activity of water  =   0.998
                 Ionic strength (mol/kgw)  =   1.850e-01
                       Mass of water (kg)  =   9.997e-01
                 Total alkalinity (eq/kg)  =   5.390e-03
                       Total CO2 (mol/kg)  =   4.873e-03
                         Temperature (°C)  =  25.00
                  Electrical balance (eq)  =   1.890e-13
 Percent error, 100*(Cat-|An|)/(Cat+|An|)  =   0.00
                               Iterations  =  10
                                  Total H  = 1.109874e+02
                                  Total O  = 5.581849e+01

----------------------------Distribution of species----------------------------

                                               Log       Log       Log    mole V
   Species          Molality    Activity  Molality  Activity     Gamma   cm³/mol

   OH-             3.043e-07   2.171e-07    -6.517    -6.663    -0.147     -3.53
   H+              5.810e-08   4.652e-08    -7.236    -7.332    -0.097      0.00
   H2O             5.551e+01   9.976e-01     1.744    -0.001     0.000     18.07
Al            4.084e-05
   Al(OH)4-        3.984e-05   2.925e-05    -4.400    -4.534    -0.134     (0)  
   Al(OH)3         6.936e-07   7.238e-07    -6.159    -6.140     0.019     (0)  
   Al(OH)2+        3.051e-07   2.291e-07    -6.516    -6.640    -0.124     (0)  
   AlOH+2          4.287e-09   1.363e-09    -8.368    -8.866    -0.498    -26.95
   AlSO4+          3.538e-10   2.598e-10    -9.451    -9.585    -0.134     (0)  
   Al(SO4)2-       1.437e-10   1.055e-10    -9.843    -9.977    -0.134     (0)  
   Al+3            4.733e-11   6.397e-12   -10.325   -11.194    -0.869    -40.85
   AlHSO4+2        3.391e-18   1.072e-18   -17.470   -17.970    -0.500     (0)  
C(-4)         2.435e-22
   CH4             2.435e-22   2.541e-22   -21.614   -21.595     0.019     35.46
C(4)          4.873e-03
   HCO3-           2.122e-03   1.599e-03    -2.673    -2.796    -0.123     25.86
   FeHCO3+         2.003e-03   1.502e-03    -2.698    -2.823    -0.125     (0)  
   FeCO3           3.481e-04   3.633e-04    -3.458    -3.440     0.019     (0)  
   CO2             1.630e-04   1.676e-04    -3.788    -3.776     0.012     34.79
   MnHCO3+         7.111e-05   5.289e-05    -4.148    -4.277    -0.129     (0)  
   MgHCO3+         6.510e-05   4.715e-05    -4.186    -4.327    -0.140      5.71
   MnCO3           4.554e-05   4.752e-05    -4.342    -4.323     0.019     (0)  
   ZnCO3           1.668e-05   1.741e-05    -4.778    -4.759     0.019     (0)  
   ZnHCO3+         1.453e-05   1.090e-05    -4.838    -4.963    -0.125     (0)  
   CaCO3           5.739e-06   5.989e-06    -5.241    -5.223     0.019    -14.60
   CO3-2           5.070e-06   1.612e-06    -5.295    -5.793    -0.498     -2.69
   NaHCO3          4.769e-06   5.086e-06    -5.322    -5.294     0.028     17.66
   MgCO3           3.715e-06   3.876e-06    -5.430    -5.412     0.019    -17.09
   Zn(CO3)2-2      1.899e-06   5.999e-07    -5.722    -6.222    -0.500     (0)  
   KHCO3           8.502e-08   8.872e-08    -7.070    -7.052     0.019     21.42
   CuCO3           4.013e-08   4.188e-08    -7.397    -7.378     0.019     (0)  
   CuHCO3+         5.171e-09   3.877e-09    -8.286    -8.412    -0.125     (0)  
   (CO2)2          4.441e-10   4.567e-10    -9.353    -9.340     0.012     68.75
   CaHCO3+         4.075e-10   3.100e-10    -9.390    -9.509    -0.119      9.87
   Cu(CO3)2-2      2.689e-10   8.498e-11    -9.570   -10.071    -0.500     (0)  
Ca            1.063e-02
   Ca+2            6.737e-03   2.212e-03    -2.172    -2.655    -0.484    -17.24
   CaSO4           3.888e-03   3.962e-03    -2.410    -2.402     0.008      7.22
   CaCO3           5.739e-06   5.989e-06    -5.241    -5.223     0.019    -14.60
   CaOH+           1.050e-08   7.872e-09    -7.979    -8.104    -0.125     (0)  
   CaHSO4+         2.060e-09   1.544e-09    -8.686    -8.811    -0.125     (0)  
   CaHCO3+         4.075e-10   3.100e-10    -9.390    -9.509    -0.119      9.87
Cl            9.642e-03
   Cl-             5.502e-03   3.969e-03    -2.259    -2.401    -0.142     18.44
   CuCl2-          1.987e-03   1.439e-03    -2.702    -2.842    -0.140     (0)  
   FeCl+           6.866e-05   5.148e-05    -4.163    -4.288    -0.125     (0)  
   CuCl3-2         2.957e-05   9.050e-06    -4.529    -5.043    -0.514     (0)  
   MnCl+           8.069e-06   6.002e-06    -5.093    -5.222    -0.129     -2.88
   ZnCl+           7.985e-07   5.783e-07    -6.098    -6.238    -0.140    -14.33
   ZnOHCl          1.462e-07   1.526e-07    -6.835    -6.817     0.019     (0)  
   MnCl2           9.965e-09   1.040e-08    -8.002    -7.983     0.019     85.89
   ZnCl2           2.303e-09   2.403e-09    -8.638    -8.619     0.019    102.03
   CuCl+           7.137e-11   5.169e-11   -10.146   -10.287    -0.140      1.11
   HCl             5.306e-11   6.360e-11   -10.275   -10.197     0.079     20.36
   MnCl3-          1.528e-11   1.137e-11   -10.816   -10.944    -0.129     44.19
   ZnCl3-          1.478e-11   1.070e-11   -10.830   -10.970    -0.140     15.93
   CuCl2           1.056e-13   1.102e-13   -12.976   -12.958     0.019     31.02
   ZnCl4-2         6.957e-14   2.129e-14   -13.158   -13.672    -0.514    147.26
   FeCl+2          3.090e-18   9.455e-19   -17.510   -18.024    -0.514     (0)  
   CuCl3-          2.142e-18   1.551e-18   -17.669   -17.809    -0.140     (0)  
   FeCl2+          2.254e-20   1.676e-20   -19.647   -19.776    -0.129     (0)  
   CuCl4-2         1.008e-22   3.086e-23   -21.996   -22.511    -0.514     (0)  
   FeCl3           6.376e-24   6.654e-24   -23.195   -23.177     0.019     (0)  
Cu(1)         2.436e-03
   CuCl2-          1.987e-03   1.439e-03    -2.702    -2.842    -0.140     (0)  
   Cu+             4.195e-04   2.888e-04    -3.377    -3.539    -0.162     (0)  
   CuCl3-2         2.957e-05   9.050e-06    -4.529    -5.043    -0.514     (0)  
Cu(2)         1.182e-07
   Cu(OH)2         4.455e-08   4.649e-08    -7.351    -7.333     0.019     (0)  
   CuCO3           4.013e-08   4.188e-08    -7.397    -7.378     0.019     (0)  
   Cu+2            1.444e-08   4.838e-09    -7.840    -8.315    -0.475    -25.78
   CuSO4           1.216e-08   1.269e-08    -7.915    -7.897     0.019     13.09
   CuHCO3+         5.171e-09   3.877e-09    -8.286    -8.412    -0.125     (0)  
   CuOH+           1.433e-09   1.038e-09    -8.844    -8.984    -0.140     (0)  
   Cu(CO3)2-2      2.689e-10   8.498e-11    -9.570   -10.071    -0.500     (0)  
   CuCl+           7.137e-11   5.169e-11   -10.146   -10.287    -0.140      1.11
   Cu2(OH)2+2      1.491e-12   4.711e-13   -11.827   -12.327    -0.500     (0)  
   CuCl2           1.056e-13   1.102e-13   -12.976   -12.958     0.019     31.02
   Cu(OH)3-        8.013e-14   6.007e-14   -13.096   -13.221    -0.125     (0)  
   CuCl3-          2.142e-18   1.551e-18   -17.669   -17.809    -0.140     (0)  
   Cu(OH)4-2       8.135e-19   2.571e-19   -18.090   -18.590    -0.500     (0)  
   CuCl4-2         1.008e-22   3.086e-23   -21.996   -22.511    -0.514     (0)  
   Cu(HS)3-        2.323e-36   1.742e-36   -35.634   -35.759    -0.125     (0)  
Fe(2)         5.111e-02
   Fe+2            2.804e-02   9.396e-03    -1.552    -2.027    -0.475    -21.27
   FeSO4           2.056e-02   2.146e-02    -1.687    -1.668     0.019     30.28
   FeHCO3+         2.003e-03   1.502e-03    -2.698    -2.823    -0.125     (0)  
   FeCO3           3.481e-04   3.633e-04    -3.458    -3.440     0.019     (0)  
   FeOH+           8.567e-05   6.372e-05    -4.067    -4.196    -0.129     (0)  
   FeCl+           6.866e-05   5.148e-05    -4.163    -4.288    -0.125     (0)  
   Fe(OH)2         1.115e-08   1.163e-08    -7.953    -7.934     0.019     (0)  
   FeHSO4+         8.750e-09   6.561e-09    -8.058    -8.183    -0.125     (0)  
   Fe(OH)3-        1.246e-11   9.267e-12   -10.905   -11.033    -0.129     (0)  
   Fe(HS)2         2.197e-29   2.293e-29   -28.658   -28.640     0.019     (0)  
   Fe(HS)3-        0.000e+00   0.000e+00   -44.259   -44.384    -0.125     (0)  
Fe(3)         3.143e-08
   Fe(OH)3         2.054e-08   2.143e-08    -7.688    -7.669     0.019     (0)  
   Fe(OH)2+        1.033e-08   7.757e-09    -7.986    -8.110    -0.124     (0)  
   Fe(OH)4-        5.582e-10   4.191e-10    -9.253    -9.378    -0.124     (0)  
   FeOH+2          3.569e-12   1.092e-12   -11.447   -11.962    -0.514     (0)  
   FeSO4+          1.493e-15   1.111e-15   -14.826   -14.954    -0.129     (0)  
   Fe(SO4)2-       4.162e-16   3.121e-16   -15.381   -15.506    -0.125     (0)  
   Fe+3            5.836e-17   7.889e-18   -16.234   -17.103    -0.869     (0)  
   FeCl+2          3.090e-18   9.455e-19   -17.510   -18.024    -0.514     (0)  
   FeCl2+          2.254e-20   1.676e-20   -19.647   -19.776    -0.129     (0)  
   Fe2(OH)2+4      3.221e-21   3.211e-23   -20.492   -22.493    -2.001     (0)  
   FeHSO4+2        4.379e-22   1.384e-22   -21.359   -21.859    -0.500     (0)  
   FeCl3           6.376e-24   6.654e-24   -23.195   -23.177     0.019     (0)  
   Fe3(OH)4+5      6.974e-26   5.204e-29   -25.156   -28.284    -3.127     (0)  
H(0)          3.790e-14
   H2              1.895e-14   1.982e-14   -13.722   -13.703     0.019     14.99
K             2.030e-04
   K+              1.731e-04   1.242e-04    -3.762    -3.906    -0.144      9.33
   KSO4-           2.982e-05   2.428e-05    -4.526    -4.615    -0.089     28.26
   KHCO3           8.502e-08   8.872e-08    -7.070    -7.052     0.019     21.42
Mg            1.604e-02
   MgSO4           7.782e-03   8.474e-03    -2.109    -2.072     0.037     -0.40
   Mg+2            7.215e-03   2.520e-03    -2.142    -2.599    -0.457    -20.95
   Mg(SO4)2-2      9.703e-04   3.585e-04    -3.013    -3.446    -0.432     44.86
   MgHCO3+         6.510e-05   4.715e-05    -4.186    -4.327    -0.140      5.71
   MgCO3           3.715e-06   3.876e-06    -5.430    -5.412     0.019    -17.09
   MgOH+           2.554e-07   1.962e-07    -6.593    -6.707    -0.114     (0)  
Mn(2)         1.360e-03
   Mn+2            1.108e-03   3.712e-04    -2.956    -3.430    -0.475    -17.61
   MnSO4           1.272e-04   1.220e-04    -3.896    -3.914    -0.018     17.15
   MnHCO3+         7.111e-05   5.289e-05    -4.148    -4.277    -0.129     (0)  
   MnCO3           4.554e-05   4.752e-05    -4.342    -4.323     0.019     (0)  
   MnCl+           8.069e-06   6.002e-06    -5.093    -5.222    -0.129     -2.88
   MnOH+           2.751e-07   2.046e-07    -6.561    -6.689    -0.129     (0)  
   MnCl2           9.965e-09   1.040e-08    -8.002    -7.983     0.019     85.89
   MnCl3-          1.528e-11   1.137e-11   -10.816   -10.944    -0.129     44.19
   Mn(OH)3-        7.801e-17   5.802e-17   -16.108   -16.236    -0.129     (0)  
Mn(3)         7.461e-31
   Mn+3            7.461e-31   1.008e-31   -30.127   -30.996    -0.869     (0)  
Na            9.541e-03
   Na+             8.563e-03   6.437e-03    -2.067    -2.191    -0.124     -0.95
   NaSO4-          9.727e-04   7.261e-04    -3.012    -3.139    -0.127     19.07
   NaHCO3          4.769e-06   5.086e-06    -5.322    -5.294     0.028     17.66
   Na2SO4          2.195e-09   2.279e-09    -8.659    -8.642     0.016     47.96
O(0)          0.000e+00
   O2              0.000e+00   0.000e+00   -64.977   -64.959     0.019     30.40
S(-2)         2.965e-18
   HS-             2.320e-18   1.655e-18   -17.634   -17.781    -0.147     20.98
   H2S             6.450e-19   6.730e-19   -18.190   -18.172     0.019     36.27
   S-2             1.404e-23   4.297e-24   -22.853   -23.367    -0.514     (0)  
   Zn(HS)2         1.237e-25   1.291e-25   -24.908   -24.889     0.019     (0)  
   Fe(HS)2         2.197e-29   2.293e-29   -28.658   -28.640     0.019     (0)  
   Cu(HS)3-        2.323e-36   1.742e-36   -35.634   -35.759    -0.125     (0)  
   (H2S)2          2.288e-38   2.387e-38   -37.641   -37.622     0.019     30.09
   Zn(HS)3-        0.000e+00   0.000e+00   -41.385   -41.510    -0.125     (0)  
   Fe(HS)3-        0.000e+00   0.000e+00   -44.259   -44.384    -0.125     (0)  
S(6)          7.811e-02
   SO4-2           4.268e-02   1.284e-02    -1.370    -1.891    -0.522     15.49
   FeSO4           2.056e-02   2.146e-02    -1.687    -1.668     0.019     30.28
   MgSO4           7.782e-03   8.474e-03    -2.109    -2.072     0.037     -0.40
   CaSO4           3.888e-03   3.962e-03    -2.410    -2.402     0.008      7.22
   NaSO4-          9.727e-04   7.261e-04    -3.012    -3.139    -0.127     19.07
   Mg(SO4)2-2      9.703e-04   3.585e-04    -3.013    -3.446    -0.432     44.86
   MnSO4           1.272e-04   1.220e-04    -3.896    -3.914    -0.018     17.15
   ZnSO4           1.212e-04   1.265e-04    -3.916    -3.898     0.019      6.48
   KSO4-           2.982e-05   2.428e-05    -4.526    -4.615    -0.089     28.26
   Zn(SO4)2-2      7.802e-07   1.261e-07    -6.108    -6.899    -0.791     45.27
   HSO4-           7.747e-08   5.808e-08    -7.111    -7.236    -0.125     40.64
   CuSO4           1.216e-08   1.269e-08    -7.915    -7.897     0.019     13.09
   FeHSO4+         8.750e-09   6.561e-09    -8.058    -8.183    -0.125     (0)  
   Na2SO4          2.195e-09   2.279e-09    -8.659    -8.642     0.016     47.96
   CaHSO4+         2.060e-09   1.544e-09    -8.686    -8.811    -0.125     (0)  
   AlSO4+          3.538e-10   2.598e-10    -9.451    -9.585    -0.134     (0)  
   Al(SO4)2-       1.437e-10   1.055e-10    -9.843    -9.977    -0.134     (0)  
   FeSO4+          1.493e-15   1.111e-15   -14.826   -14.954    -0.129     (0)  
   Fe(SO4)2-       4.162e-16   3.121e-16   -15.381   -15.506    -0.125     (0)  
   AlHSO4+2        3.391e-18   1.072e-18   -17.470   -17.970    -0.500     (0)  
   FeHSO4+2        4.379e-22   1.384e-22   -21.359   -21.859    -0.500     (0)  
Zn            3.349e-04
   Zn+2            1.769e-04   5.413e-05    -3.752    -4.267    -0.514    -24.51
   ZnSO4           1.212e-04   1.265e-04    -3.916    -3.898     0.019      6.48
   ZnCO3           1.668e-05   1.741e-05    -4.778    -4.759     0.019     (0)  
   ZnHCO3+         1.453e-05   1.090e-05    -4.838    -4.963    -0.125     (0)  
   Zn(CO3)2-2      1.899e-06   5.999e-07    -5.722    -6.222    -0.500     (0)  
   ZnOH+           1.698e-06   1.273e-06    -5.770    -5.895    -0.125     (0)  
   ZnCl+           7.985e-07   5.783e-07    -6.098    -6.238    -0.140    -14.33
   Zn(SO4)2-2      7.802e-07   1.261e-07    -6.108    -6.899    -0.791     45.27
   Zn(OH)2         3.003e-07   3.134e-07    -6.522    -6.504     0.019     (0)  
   ZnOHCl          1.462e-07   1.526e-07    -6.835    -6.817     0.019     (0)  
   ZnCl2           2.303e-09   2.403e-09    -8.638    -8.619     0.019    102.03
   Zn(OH)3-        2.835e-11   2.125e-11   -10.547   -10.673    -0.125     (0)  
   ZnCl3-          1.478e-11   1.070e-11   -10.830   -10.970    -0.140     15.93
   ZnCl4-2         6.957e-14   2.129e-14   -13.158   -13.672    -0.514    147.26
   Zn(OH)4-2       2.286e-16   7.224e-17   -15.641   -16.141    -0.500     (0)  
   Zn(HS)2         1.237e-25   1.291e-25   -24.908   -24.889     0.019     (0)  
   Zn(HS)3-        0.000e+00   0.000e+00   -41.385   -41.510    -0.125     (0)  

------------------------------Saturation indices-------------------------------

  Phase               SI** log IAP   log K(298 K,   1 atm)

  Al(OH)3(a)       -0.00     10.80   10.80  Al(OH)3
  AlOHSO4          -3.55     -5.75   -2.20  AlOHSO4
  Alunite           4.12      2.72   -1.40  KAl3(SO4)2(OH)6
  Anhydrite        -0.23     -4.55   -4.31  CaSO4
  Aragonite        -0.11     -8.45   -8.34  CaCO3
  Arcanite         -7.82     -9.70   -1.88  K2SO4
  Calcite           0.00     -8.45   -8.45  CaCO3
  CH4(g)          -18.79    -21.60   -2.80  CH4
  CO2(g)           -2.31     -3.78   -1.47  CO2
  Dolomite          0.24    -16.84  -17.08  CaMg(CO3)2
  Epsomite         -2.76     -4.50   -1.74  MgSO4:7H2O
  Fe(OH)3          -0.00      4.89    4.89  Fe(OH)3
  Fe(OH)3(a)       -0.00      4.89    4.89  Fe(OH)3
  FeS(ppt)         -8.56    -12.48   -3.92  FeS
  Gibbsite          2.69     10.80    8.11  Al(OH)3
  Goethite          5.89      4.89   -1.00  FeOOH
  Gypsum            0.00     -4.55   -4.55  CaSO4:2H2O
  H2(g)           -10.60    -13.70   -3.10  H2
  H2O(g)           -1.50     -0.00    1.50  H2O
  H2S(g)          -17.18    -25.11   -7.94  H2S
  Halite           -6.16     -4.59    1.57  NaCl
  Hausmannite     -16.78     44.25   61.03  Mn3O4
  Hematite         13.79      9.79   -4.01  Fe2O3
  Hexahydrite      -2.93     -4.50   -1.57  MgSO4:6H2O
  Jarosite-K       -5.80    -15.01   -9.21  KFe3(SO4)2(OH)6
  Kieserite        -3.33     -4.49   -1.16  MgSO4:H2O
  Mackinawite      -7.83    -12.48   -4.65  FeS
  Manganite        -8.83     16.51   25.34  MnOOH
  Melanterite      -1.72     -3.93   -2.21  FeSO4:7H2O
  Mirabilite       -5.58     -6.28   -0.71  Na2SO4:10H2O
  MnO2            -19.59     21.79   41.38  MnO2
  O2(g)           -62.07    -64.96   -2.89  O2
  Pyrite           -8.56    -27.04  -18.48  FeS2
  Pyrochroite      -3.97     11.23   15.20  Mn(OH)2
  Pyrolusite      -19.60     21.78   41.38  MnO2:H2O
  Rhodochrosite     1.91     -9.22  -11.13  MnCO3
  Siderite          3.07     -7.82  -10.89  FeCO3
  Smithsonite      -0.06    -10.06  -10.00  ZnCO3
  Sphalerite       -3.10    -14.72  -11.62  ZnS
  Sulfur          -12.50     -7.62    4.88  S
  Sylvite          -7.21     -6.31    0.90  KCl
  Thenardite       -6.92     -6.27    0.65  Na2SO4
  Zn(OH)2(e)       -1.10     10.40   11.50  Zn(OH)2

**For a gas, SI = log10(fugacity). Fugacity = pressure * phi / 1 atm.
  For ideal gases, phi = 1.

------------------
End of simulation.
------------------

------------------------------------
Reading input data for simulation 2.
------------------------------------

