WARNING: Database file from DATABASE keyword is used; command line argument ignored.
   Input file: joe
  Output file: joe.out
Database file: ../database/phreeqc.dat

------------------
Reading data base.
------------------

	SOLUTION_MASTER_SPECIES
	SOLUTION_SPECIES
	PHASES
	GAS_BINARY_PARAMETERS
	EXCHANGE_MASTER_SPECIES
	EXCHANGE_SPECIES
	SURFACE_MASTER_SPECIES
	SURFACE_SPECIES
	MEAN_GAMMAS
	RATES
	END
------------------------------------
Reading input data for simulation 1.
------------------------------------

	DATABASE ../database/phreeqc.dat
	SELECTED_OUTPUT 101
	    file                 joe_101.sel
	USER_PUNCH 101
	    headings Mu SC
	    start
	10 PUNCH STR_F$(MU, 20, 12)
	20 PUNCH STR_F$(SC, 20, 10)
	    end
	PRINT
		status false
	SOLUTION 1	WLB ms APW04
		temp	25.
		ph	6.692	charge
		dens	1.0
		pe	4.0
		units	mol/kgw
		Ca	6.227e-03
		Mg	4.850e-03
		Na	1.863e-01
		K	3.200e-03
		Sr	5.800e-04
		Cl	2.000e-01
		C	1.646e-02	as HCO3
		F	2.026e-04
		Si	2.700e-04	as Si(OH)4
	EXCHANGE	1
		equilibrate	1
		X	1.06534
	PURE_PHASES	1
		Calcite		0.0
		Fluorite	0.0
		CO2(g)		-0.94
	EXCHANGE_MASTER_SPECIES
		X	X-	
	EXCHANGE_SPECIES
		X- = X-
		log_k		0.0
		Na+ + X- = NaX
		log_k		0.0
		K+ + X- = KX
		log_k		0.819
		H+ + X- = HX
		log_k		1.     0
		Ca+2 + 2X- = CaX2
		log_k		0.564
		Mg+2 + 2X- = MgX2
		log_k		0.182
		Sr+2 + 2X- = SrX2
		log_k		0.529
	SAVE exchange 2
	END
-------------------------------------------
Beginning of initial solution calculations.
-------------------------------------------

Initial solution 1.	WLB ms APW04

-----------------------------Solution composition------------------------------

	Elements           Molality       Moles

	C                 1.646e-02   1.646e-02
	Ca                6.227e-03   6.227e-03
	Cl                2.000e-01   2.000e-01
	F                 2.026e-04   2.026e-04
	K                 3.200e-03   3.200e-03
	Mg                4.850e-03   4.850e-03
	Na                1.863e-01   1.863e-01
	Si                2.700e-04   2.700e-04
	Sr                5.800e-04   5.800e-04

----------------------------Description of solution----------------------------

                                       pH  =   6.694      Charge balance
                                       pe  =   4.000    
      Specific Conductance (µS/cm,  25°C)  = 20848
                          Density (g/cm³)  =   1.00607
                               Volume (L)  =   1.00678
                        Viscosity (mPa s)  =   0.91070
                        Activity of water  =   0.993
                 Ionic strength (mol/kgw)  =   2.233e-01
                       Mass of water (kg)  =   1.000e+00
                 Total alkalinity (eq/kg)  =   1.261e-02
                       Total CO2 (mol/kg)  =   1.646e-02
                         Temperature (°C)  =  25.00
                  Electrical balance (eq)  =   2.133e-15
 Percent error, 100*(Cat-|An|)/(Cat+|An|)  =   0.00
                               Iterations  =   8
                                  Total H  = 1.110261e+02
                                  Total O  = 5.555281e+01

----------------------------Distribution of species----------------------------

                                               Log       Log       Log    mole V
   Species          Molality    Activity  Molality  Activity     Gamma   cm³/mol

   H+              2.548e-07   2.021e-07    -6.594    -6.694    -0.101      0.00
   OH-             7.125e-08   4.973e-08    -7.147    -7.303    -0.156     -3.45
   H2O             5.551e+01   9.929e-01     1.744    -0.003     0.000     18.07
C(-4)         0.000e+00
   CH4             0.000e+00   0.000e+00   -63.579   -63.557     0.022     35.46
C(4)          1.646e-02
   HCO3-           1.177e-02   8.735e-03    -1.929    -2.059    -0.129     26.06
   CO2             3.864e-03   3.998e-03    -2.413    -2.398     0.015     34.79
   NaHCO3          5.510e-04   5.955e-04    -3.259    -3.225     0.034     17.66
   MgHCO3+         2.220e-04   1.576e-04    -3.654    -3.802    -0.149      5.72
   SrHCO3+         3.109e-05   2.299e-05    -4.507    -4.639    -0.131     (0)  
   KHCO3           8.320e-06   8.759e-06    -5.080    -5.058     0.022     21.42
   CO3-2           6.781e-06   2.027e-06    -5.169    -5.693    -0.524     -2.47
   CaCO3           6.276e-06   6.607e-06    -5.202    -5.180     0.022    -14.60
   MgCO3           2.833e-06   2.983e-06    -5.548    -5.525     0.022    -17.09
   (CO2)2          2.511e-07   2.598e-07    -6.600    -6.585     0.015     68.75
   SrCO3           2.114e-07   2.226e-07    -6.675    -6.652     0.022    -14.13
   CaHCO3+         1.981e-09   1.486e-09    -8.703    -8.828    -0.125      9.88
Ca            6.227e-03
   Ca+2            6.221e-03   1.940e-03    -2.206    -2.712    -0.506    -17.17
   CaCO3           6.276e-06   6.607e-06    -5.202    -5.180     0.022    -14.60
   CaOH+           2.132e-09   1.582e-09    -8.671    -8.801    -0.130     (0)  
   CaHCO3+         1.981e-09   1.486e-09    -8.703    -8.828    -0.125      9.88
Cl            2.000e-01
   Cl-             2.000e-01   1.415e-01    -0.699    -0.849    -0.150     18.48
   HCl             7.913e-09   9.849e-09    -8.102    -8.007     0.095     20.36
F             2.026e-04
   F-              1.760e-04   1.228e-04    -3.755    -3.911    -0.156     -0.90
   MgF+            1.735e-05   1.251e-05    -4.761    -4.903    -0.142    -10.34
   NaF             9.259e-06   9.747e-06    -5.033    -5.011     0.022      7.26
   HF              3.536e-08   3.722e-08    -7.452    -7.429     0.022     12.50
   HF2-            2.363e-11   1.754e-11   -10.626   -10.756    -0.130     22.48
   SiF6-2          8.833e-24   2.531e-24   -23.054   -23.597    -0.543     44.24
H(0)          5.479e-25
   H2              2.740e-25   2.892e-25   -24.562   -24.539     0.023     14.99
K             3.200e-03
   K+              3.192e-03   2.245e-03    -2.496    -2.649    -0.153      9.36
   KHCO3           8.320e-06   8.759e-06    -5.080    -5.058     0.022     21.42
Mg            4.850e-03
   Mg+2            4.608e-03   1.542e-03    -2.337    -2.812    -0.475    -20.88
   MgHCO3+         2.220e-04   1.576e-04    -3.654    -3.802    -0.149      5.72
   MgF+            1.735e-05   1.251e-05    -4.761    -4.903    -0.142    -10.34
   MgCO3           2.833e-06   2.983e-06    -5.548    -5.525     0.022    -17.09
   MgOH+           3.626e-08   2.751e-08    -7.441    -7.561    -0.120     (0)  
Na            1.863e-01
   Na+             1.857e-01   1.379e-01    -0.731    -0.860    -0.129     -0.90
   NaHCO3          5.510e-04   5.955e-04    -3.259    -3.225     0.034     17.66
   NaF             9.259e-06   9.747e-06    -5.033    -5.011     0.022      7.26
O(0)          0.000e+00
   O2              0.000e+00   0.000e+00   -43.313   -43.291     0.022     30.40
Si            2.700e-04
   H4SiO4          2.697e-04   2.839e-04    -3.569    -3.547     0.022     52.08
   H3SiO4-         2.917e-07   2.072e-07    -6.535    -6.684    -0.149     28.39
   H2SiO4-2        2.333e-13   6.972e-14   -12.632   -13.157    -0.524     (0)  
   SiF6-2          8.833e-24   2.531e-24   -23.054   -23.597    -0.543     44.24
Sr            5.800e-04
   Sr+2            5.487e-04   1.720e-04    -3.261    -3.764    -0.504    -16.98
   SrHCO3+         3.109e-05   2.299e-05    -4.507    -4.639    -0.131     (0)  
   SrCO3           2.114e-07   2.226e-07    -6.675    -6.652     0.022    -14.13
   SrOH+           5.924e-11   4.335e-11   -10.227   -10.363    -0.136     (0)  

------------------------------Saturation indices-------------------------------

  Phase               SI** log IAP   log K(298 K,   1 atm)

  Aragonite        -0.07     -8.41   -8.34  CaCO3
  Calcite           0.04     -8.41   -8.45  CaCO3
  CH4(g)          -60.76    -63.56   -2.80  CH4
  Chalcedony        0.01     -3.54   -3.55  SiO2
  Chrysotile       -7.57     24.63   32.20  Mg3Si2O5(OH)4
  CO2(g)           -0.93     -2.40   -1.47  CO2
  Dolomite          0.17    -16.91  -17.08  CaMg(CO3)2
  Fluorite          0.07    -10.53  -10.60  CaF2
  H2(g)           -21.44    -24.54   -3.10  H2
  H2O(g)           -1.51     -0.00    1.50  H2O
  Halite           -3.28     -1.71    1.57  NaCl
  O2(g)           -40.40    -43.29   -2.89  O2
  Quartz            0.44     -3.54   -3.98  SiO2
  Sepiolite        -5.24     10.52   15.76  Mg2Si3O7.5OH:3H2O
  Sepiolite(d)     -8.14     10.52   18.66  Mg2Si3O7.5OH:3H2O
  SiO2(a)          -0.83     -3.54   -2.71  SiO2
  Strontianite     -0.19     -9.46   -9.27  SrCO3
  Sylvite          -4.40     -3.50    0.90  KCl
  Talc             -3.84     17.56   21.40  Mg3Si4O10(OH)2

**For a gas, SI = log10(fugacity). Fugacity = pressure * phi / 1 atm.
  For ideal gases, phi = 1.

-------------------------------------------------------
Beginning of initial exchange-composition calculations.
-------------------------------------------------------

Exchange 1.	

X                1.065e+00 mol

	                               Equiv-    Equivalent      Log 
	Species             Moles      alents      Fraction     Gamma

	NaX               7.262e-01   7.262e-01   6.817e-01     0.000
	CaX2              9.252e-02   1.850e-01   1.737e-01     0.000
	KX                7.791e-02   7.791e-02   7.314e-02     0.000
	MgX2              3.051e-02   6.102e-02   5.727e-02     0.000
	SrX2              7.567e-03   1.513e-02   1.421e-02     0.000
	HX                1.064e-05   1.064e-05   9.989e-06     0.000

-----------------------------------------
Beginning of batch-reaction calculations.
-----------------------------------------

Reaction step 1.

Using solution 1.	WLB ms APW04
Using exchange 1.	Exchange assemblage after simulation 1.
Using pure phase assemblage 1.	

-------------------------------Phase assemblage--------------------------------

                                                      Moles in assemblage
Phase               SI  log IAP  log K(T, P)   Initial       Final       Delta

CO2(g)           -0.94    -2.41     -1.47    1.000e+01   1.000e+01   4.370e-04
Calcite           0.00    -8.45     -8.45    1.000e+01   1.000e+01   3.491e-04
Fluorite          0.00   -10.60    -10.60    1.000e+01   1.000e+01   7.070e-06

-----------------------------Exchange composition------------------------------

X                1.065e+00 mol

	                               Equiv-    Equivalent      Log 
	Species             Moles      alents      Fraction     Gamma

	NaX               7.267e-01   7.267e-01   6.821e-01     0.000
	CaX2              9.222e-02   1.844e-01   1.731e-01     0.000
	KX                7.792e-02   7.792e-02   7.315e-02     0.000
	MgX2              3.055e-02   6.109e-02   5.735e-02     0.000
	SrX2              7.573e-03   1.515e-02   1.422e-02     0.000
	HX                1.103e-05   1.103e-05   1.035e-05     0.000

-----------------------------Solution composition------------------------------

	Elements           Molality       Moles

	C                 1.567e-02   1.567e-02
	Ca                6.165e-03   6.165e-03
	Cl                2.000e-01   2.000e-01
	F                 1.885e-04   1.885e-04
	K                 3.189e-03   3.189e-03
	Mg                4.811e-03   4.811e-03
	Na                1.858e-01   1.858e-01
	Si                2.700e-04   2.700e-04
	Sr                5.748e-04   5.748e-04

----------------------------Description of solution----------------------------

                                       pH  =   6.680      Charge balance
                                       pe  =  11.491      Adjusted to redox equilibrium
      Specific Conductance (µS/cm,  25°C)  = 20807
                          Density (g/cm³)  =   1.00602
                               Volume (L)  =   1.00677
                        Viscosity (mPa s)  =   0.91056
                        Activity of water  =   0.993
                 Ionic strength (mol/kgw)  =   2.226e-01
                       Mass of water (kg)  =   1.000e+00
                 Total alkalinity (eq/kg)  =   1.191e-02
                       Total CO2 (mol/kg)  =   1.567e-02
                         Temperature (°C)  =  25.00
                  Electrical balance (eq)  =  -4.635e-14
 Percent error, 100*(Cat-|An|)/(Cat+|An|)  =  -0.00
                               Iterations  =   9
                                  Total H  = 1.110261e+02
                                  Total O  = 5.555089e+01

----------------------------Distribution of species----------------------------

                                               Log       Log       Log    mole V
   Species          Molality    Activity  Molality  Activity     Gamma   cm³/mol

   H+              2.632e-07   2.088e-07    -6.580    -6.680    -0.100      0.00
   OH-             6.892e-08   4.812e-08    -7.162    -7.318    -0.156     -3.45
   H2O             5.551e+01   9.929e-01     1.744    -0.003     0.000     18.07
C(-4)         0.000e+00
   CH4             0.000e+00   0.000e+00  -123.401  -123.379     0.022     35.46
C(4)          1.567e-02
   HCO3-           1.112e-02   8.256e-03    -1.954    -2.083    -0.129     26.06
   CO2             3.775e-03   3.904e-03    -2.423    -2.408     0.015     34.79
   NaHCO3          5.198e-04   5.616e-04    -3.284    -3.251     0.034     17.66
   MgHCO3+         2.088e-04   1.483e-04    -3.680    -3.829    -0.149      5.72
   SrHCO3+         2.922e-05   2.161e-05    -4.534    -4.665    -0.131     (0)  
   KHCO3           7.843e-06   8.256e-06    -5.105    -5.083     0.022     21.42
   CO3-2           6.196e-06   1.854e-06    -5.208    -5.732    -0.524     -2.48
   CaCO3           5.690e-06   5.989e-06    -5.245    -5.223     0.022    -14.60
   MgCO3           2.580e-06   2.716e-06    -5.588    -5.566     0.022    -17.09
   (CO2)2          2.396e-07   2.478e-07    -6.621    -6.606     0.015     68.75
   SrCO3           1.924e-07   2.026e-07    -6.716    -6.693     0.022    -14.13
   CaHCO3+         1.855e-09   1.392e-09    -8.732    -8.856    -0.125      9.88
Ca            6.165e-03
   Ca+2            6.159e-03   1.923e-03    -2.210    -2.716    -0.506    -17.17
   CaCO3           5.690e-06   5.989e-06    -5.245    -5.223     0.022    -14.60
   CaOH+           2.044e-09   1.517e-09    -8.690    -8.819    -0.129     (0)  
   CaHCO3+         1.855e-09   1.392e-09    -8.732    -8.856    -0.125      9.88
Cl            2.000e-01
   Cl-             2.000e-01   1.415e-01    -0.699    -0.849    -0.150     18.48
   HCl             8.186e-09   1.018e-08    -8.087    -7.992     0.095     20.36
F             1.885e-04
   F-              1.638e-04   1.143e-04    -3.786    -3.942    -0.156     -0.90
   MgF+            1.607e-05   1.160e-05    -4.794    -4.936    -0.142    -10.34
   NaF             8.602e-06   9.054e-06    -5.065    -5.043     0.022      7.26
   HF              3.402e-08   3.581e-08    -7.468    -7.446     0.022     12.50
   HF2-            2.117e-11   1.571e-11   -10.674   -10.804    -0.129     22.48
   SiF6-2          6.549e-24   1.879e-24   -23.184   -23.726    -0.542     44.23
H(0)          6.109e-40
   H2              3.055e-40   3.224e-40   -39.515   -39.492     0.023     14.99
K             3.189e-03
   K+              3.182e-03   2.239e-03    -2.497    -2.650    -0.153      9.36
   KHCO3           7.843e-06   8.256e-06    -5.105    -5.083     0.022     21.42
Mg            4.811e-03
   Mg+2            4.583e-03   1.535e-03    -2.339    -2.814    -0.475    -20.88
   MgHCO3+         2.088e-04   1.483e-04    -3.680    -3.829    -0.149      5.72
   MgF+            1.607e-05   1.160e-05    -4.794    -4.936    -0.142    -10.34
   MgCO3           2.580e-06   2.716e-06    -5.588    -5.566     0.022    -17.09
   MgOH+           3.492e-08   2.650e-08    -7.457    -7.577    -0.120     (0)  
Na            1.858e-01
   Na+             1.853e-01   1.376e-01    -0.732    -0.861    -0.129     -0.90
   NaHCO3          5.198e-04   5.616e-04    -3.284    -3.251     0.034     17.66
   NaF             8.602e-06   9.054e-06    -5.065    -5.043     0.022      7.26
O(0)          7.823e-14
   O2              3.912e-14   4.117e-14   -13.408   -13.385     0.022     30.40
Si            2.700e-04
   H4SiO4          2.697e-04   2.839e-04    -3.569    -3.547     0.022     52.08
   H3SiO4-         2.822e-07   2.004e-07    -6.549    -6.698    -0.149     28.39
   H2SiO4-2        2.182e-13   6.529e-14   -12.661   -13.185    -0.524     (0)  
   SiF6-2          6.549e-24   1.879e-24   -23.184   -23.726    -0.542     44.23
Sr            5.748e-04
   Sr+2            5.454e-04   1.711e-04    -3.263    -3.767    -0.503    -16.99
   SrHCO3+         2.922e-05   2.161e-05    -4.534    -4.665    -0.131     (0)  
   SrCO3           1.924e-07   2.026e-07    -6.716    -6.693     0.022    -14.13
   SrOH+           5.702e-11   4.173e-11   -10.244   -10.380    -0.136     (0)  

------------------------------Saturation indices-------------------------------

  Phase               SI** log IAP   log K(298 K,   1 atm)

  Aragonite        -0.11     -8.45   -8.34  CaCO3
  Calcite           0.00     -8.45   -8.45  CaCO3
  CH4(g)         -120.58   -123.38   -2.80  CH4
  Chalcedony        0.01     -3.54   -3.55  SiO2
  Chrysotile       -7.66     24.54   32.20  Mg3Si2O5(OH)4
  CO2(g)           -0.94     -2.41   -1.47  CO2	 Pressure   0.1 atm, phi 0.999
  Dolomite          0.09    -16.99  -17.08  CaMg(CO3)2
  Fluorite          0.00    -10.60  -10.60  CaF2
  H2(g)           -36.39    -39.49   -3.10  H2
  H2O(g)           -1.51     -0.00    1.50  H2O
  Halite           -3.28     -1.71    1.57  NaCl
  O2(g)           -10.49    -13.39   -2.89  O2
  Quartz            0.44     -3.54   -3.98  SiO2
  Sepiolite        -5.31     10.45   15.76  Mg2Si3O7.5OH:3H2O
  Sepiolite(d)     -8.21     10.45   18.66  Mg2Si3O7.5OH:3H2O
  SiO2(a)          -0.83     -3.54   -2.71  SiO2
  Strontianite     -0.23     -9.50   -9.27  SrCO3
  Sylvite          -4.40     -3.50    0.90  KCl
  Talc             -3.93     17.46   21.40  Mg3Si4O10(OH)2

**For a gas, SI = log10(fugacity). Fugacity = pressure * phi / 1 atm.
  For ideal gases, phi = 1.

------------------
End of simulation.
------------------

------------------------------------
Reading input data for simulation 2.
------------------------------------

	SOLUTION 2
		temp	25
		ph	7.0	charge
		dens	1.0
		pe	4.0
		units	mol/kgw
		Cl	0.2
	MIX
		2	0.1
	PURE_PHASES 2
		Calcite 	0.0	0.1
		Fluorite	0.0	0.1
	USE exchange 2
	END
-------------------------------------------
Beginning of initial solution calculations.
-------------------------------------------

Initial solution 2.	

-----------------------------Solution composition------------------------------

	Elements           Molality       Moles

	Cl                2.000e-01   2.000e-01

----------------------------Description of solution----------------------------

                                       pH  =   0.810      Charge balance
                                       pe  =   4.000    
      Specific Conductance (µS/cm,  25°C)  = 75059
                          Density (g/cm³)  =   1.00062
                               Volume (L)  =   1.00667
                        Viscosity (mPa s)  =   0.90045
                        Activity of water  =   0.993
                 Ionic strength (mol/kgw)  =   1.939e-01
                       Mass of water (kg)  =   1.000e+00
                 Total alkalinity (eq/kg)  =  -2.000e-01
                         Temperature (°C)  =  25.00
                  Electrical balance (eq)  =   1.127e-10
 Percent error, 100*(Cat-|An|)/(Cat+|An|)  =   0.00
                               Iterations  =   7
                                  Total H  = 1.112124e+02
                                  Total O  = 5.550622e+01

----------------------------Distribution of species----------------------------

                                               Log       Log       Log    mole V
   Species          Molality    Activity  Molality  Activity     Gamma   cm³/mol

   H+              1.939e-01   1.549e-01    -0.713    -0.810    -0.098      0.00
   OH-             9.152e-14   6.492e-14   -13.039   -13.188    -0.149     -3.51
   H2O             5.551e+01   9.933e-01     1.744    -0.003     0.000     18.07
Cl            2.000e-01
   Cl-             1.939e-01   1.392e-01    -0.713    -0.856    -0.144     18.45
   HCl             6.139e-03   7.424e-03    -2.212    -2.129     0.083     20.36
H(0)          3.240e-13
   H2              1.620e-13   1.698e-13   -12.791   -12.770     0.020     14.99
O(0)          0.000e+00
   O2              0.000e+00   0.000e+00   -66.847   -66.828     0.019     30.40

------------------------------Saturation indices-------------------------------

  Phase               SI** log IAP   log K(298 K,   1 atm)

  H2(g)            -9.67    -12.77   -3.10  H2
  H2O(g)           -1.51     -0.00    1.50  H2O
  O2(g)           -63.94    -66.83   -2.89  O2

**For a gas, SI = log10(fugacity). Fugacity = pressure * phi / 1 atm.
  For ideal gases, phi = 1.

-----------------------------------------
Beginning of batch-reaction calculations.
-----------------------------------------

Reaction step 1.

Using mix 1.	
Using exchange 2.	Exchange assemblage after simulation 1.
Using pure phase assemblage 2.	

Mixture 1.	

	  1.000e-01 Solution 2	                                                       

-------------------------------Phase assemblage--------------------------------

                                                      Moles in assemblage
Phase               SI  log IAP  log K(T, P)   Initial       Final       Delta

Calcite           0.00    -8.45     -8.45    1.000e-01   8.774e-02  -1.226e-02
Fluorite          0.00   -10.60    -10.60    1.000e-01   9.999e-02  -8.203e-06

-----------------------------Exchange composition------------------------------

X                1.065e+00 mol

	                               Equiv-    Equivalent      Log 
	Species             Moles      alents      Fraction     Gamma

	NaX               7.059e-01   7.059e-01   6.626e-01     0.000
	CaX2              1.036e-01   2.071e-01   1.944e-01     0.000
	KX                7.756e-02   7.756e-02   7.280e-02     0.000
	MgX2              2.985e-02   5.970e-02   5.604e-02     0.000
	SrX2              7.486e-03   1.497e-02   1.405e-02     0.000
	HX                5.275e-05   5.275e-05   4.952e-05     0.000

-----------------------------Solution composition------------------------------

	Elements           Molality       Moles

	C                 1.225e-01   1.226e-02
	Ca                9.228e-03   9.240e-04
	Cl                1.997e-01   2.000e-02
	F                 1.638e-04   1.641e-05
	K                 3.678e-03   3.683e-04
	Mg                6.947e-03   6.957e-04
	Na                2.078e-01   2.080e-02
	Sr                8.610e-04   8.621e-05

----------------------------Description of solution----------------------------

                                       pH  =   5.946      Charge balance
                                       pe  =  -1.131      Adjusted to redox equilibrium
      Specific Conductance (µS/cm,  25°C)  = 22453
                          Density (g/cm³)  =   1.00864
                               Volume (L)  =   0.10115
                        Viscosity (mPa s)  =   0.92340
                        Activity of water  =   0.991
                 Ionic strength (mol/kgw)  =   2.580e-01
                       Mass of water (kg)  =   1.001e-01
                 Total alkalinity (eq/kg)  =   4.562e-02
                       Total CO2 (mol/kg)  =   1.225e-01
                         Temperature (°C)  =  25.00
                  Electrical balance (eq)  =   1.127e-11
 Percent error, 100*(Cat-|An|)/(Cat+|An|)  =   0.00
                               Iterations  =  17
                                  Total H  = 1.112120e+01
                                  Total O  = 5.587412e+00

----------------------------Distribution of species----------------------------

                                               Log       Log       Log    mole V
   Species          Molality    Activity  Molality  Activity     Gamma   cm³/mol

   H+              1.436e-06   1.131e-06    -5.843    -5.946    -0.104      0.00
   OH-             1.292e-08   8.864e-09    -7.889    -8.052    -0.164     -3.38
   H2O             5.551e+01   9.907e-01     1.744    -0.004     0.000     18.07
C(-4)         5.612e-16
   CH4             5.612e-16   5.955e-16   -15.251   -15.225     0.026     35.46
C(4)          1.225e-01
   CO2             7.666e-02   7.972e-02    -1.115    -1.098     0.017     34.79
   HCO3-           4.230e-02   3.105e-02    -1.374    -1.508    -0.134     26.23
   NaHCO3          2.124e-03   2.323e-03    -2.673    -2.634     0.039     17.66
   MgHCO3+         9.996e-04   6.990e-04    -3.000    -3.156    -0.155      5.74
   SrHCO3+         1.411e-04   1.031e-04    -3.851    -3.987    -0.136     (0)  
   (CO2)2          9.935e-05   1.033e-04    -4.003    -3.986     0.017     68.75
   KHCO3           3.298e-05   3.500e-05    -4.482    -4.456     0.026     21.42
   CaCO3           5.643e-06   5.989e-06    -5.248    -5.223     0.026    -14.60
   CO3-2           4.516e-06   1.287e-06    -5.345    -5.890    -0.545     -2.29
   MgCO3           2.227e-06   2.363e-06    -5.652    -5.627     0.026    -17.09
   SrCO3           1.680e-07   1.783e-07    -6.775    -6.749     0.026    -14.13
   CaHCO3+         1.016e-08   7.540e-09    -7.993    -8.123    -0.129      9.89
Ca            9.228e-03
   Ca+2            9.222e-03   2.770e-03    -2.035    -2.558    -0.522    -17.12
   CaCO3           5.643e-06   5.989e-06    -5.248    -5.223     0.026    -14.60
   CaHCO3+         1.016e-08   7.540e-09    -7.993    -8.123    -0.129      9.89
   CaOH+           5.459e-10   4.025e-10    -9.263    -9.395    -0.132     (0)  
Cl            1.997e-01
   Cl-             1.997e-01   1.391e-01    -0.700    -0.857    -0.157     18.51
   HCl             4.211e-08   5.423e-08    -7.376    -7.266     0.110     20.36
F             1.638e-04
   F-              1.388e-04   9.527e-05    -3.857    -4.021    -0.164     -0.87
   MgF+            1.703e-05   1.211e-05    -4.769    -4.917    -0.148    -10.33
   NaF             7.821e-06   8.299e-06    -5.107    -5.081     0.026      7.26
   HF              1.523e-07   1.616e-07    -6.817    -6.791     0.026     12.50
   HF2-            8.013e-11   5.908e-11   -10.096   -10.229    -0.132     22.51
H(0)          3.109e-13
   H2              1.555e-13   1.655e-13   -12.808   -12.781     0.027     14.99
K             3.678e-03
   K+              3.645e-03   2.523e-03    -2.438    -2.598    -0.160      9.39
   KHCO3           3.298e-05   3.500e-05    -4.482    -4.456     0.026     21.42
Mg            6.947e-03
   Mg+2            5.929e-03   1.924e-03    -2.227    -2.716    -0.489    -20.83
   MgHCO3+         9.996e-04   6.990e-04    -3.000    -3.156    -0.155      5.74
   MgF+            1.703e-05   1.211e-05    -4.769    -4.917    -0.148    -10.33
   MgCO3           2.227e-06   2.363e-06    -5.652    -5.627     0.026    -17.09
   MgOH+           8.144e-09   6.117e-09    -8.089    -8.213    -0.124     (0)  
Na            2.078e-01
   Na+             2.056e-01   1.514e-01    -0.687    -0.820    -0.133     -0.86
   NaHCO3          2.124e-03   2.323e-03    -2.673    -2.634     0.039     17.66
   NaF             7.821e-06   8.299e-06    -5.107    -5.081     0.026      7.26
O(0)          0.000e+00
   O2              0.000e+00   0.000e+00   -66.834   -66.808     0.026     30.40
Sr            8.610e-04
   Sr+2            7.197e-04   2.170e-04    -3.143    -3.664    -0.521    -16.92
   SrHCO3+         1.411e-04   1.031e-04    -3.851    -3.987    -0.136     (0)  
   SrCO3           1.680e-07   1.783e-07    -6.775    -6.749     0.026    -14.13
   SrOH+           1.349e-11   9.746e-12   -10.870   -11.011    -0.141     (0)  

------------------------------Saturation indices-------------------------------

  Phase               SI** log IAP   log K(298 K,   1 atm)

  Aragonite        -0.11     -8.45   -8.34  CaCO3
  Calcite           0.00     -8.45   -8.45  CaCO3
  CH4(g)          -12.42    -15.23   -2.80  CH4
  CO2(g)            0.37     -1.10   -1.47  CO2
  Dolomite          0.03    -17.05  -17.08  CaMg(CO3)2
  Fluorite          0.00    -10.60  -10.60  CaF2
  H2(g)            -9.68    -12.78   -3.10  H2
  H2O(g)           -1.51     -0.00    1.50  H2O
  Halite           -3.25     -1.68    1.57  NaCl
  O2(g)           -63.92    -66.81   -2.89  O2
  Strontianite     -0.28     -9.55   -9.27  SrCO3
  Sylvite          -4.35     -3.45    0.90  KCl

**For a gas, SI = log10(fugacity). Fugacity = pressure * phi / 1 atm.
  For ideal gases, phi = 1.

------------------
End of simulation.
------------------

------------------------------------
Reading input data for simulation 3.
------------------------------------

	MIX
		2	0.01
	USE pure_phases 2
	USE exchange 2
	END
-----------------------------------------
Beginning of batch-reaction calculations.
-----------------------------------------

Reaction step 1.

Using mix 1.	
Using exchange 2.	Exchange assemblage after simulation 1.
Using pure phase assemblage 2.	

Mixture 1.	

	  1.000e-02 Solution 2	                                                       

-------------------------------Phase assemblage--------------------------------

                                                      Moles in assemblage
Phase               SI  log IAP  log K(T, P)   Initial       Final       Delta

Calcite           0.00    -8.45     -8.45    1.000e-01   9.878e-02  -1.219e-03
Fluorite          0.00   -10.60    -10.60    1.000e-01   1.000e-01  -8.722e-07

-----------------------------Exchange composition------------------------------

X                1.065e+00 mol

	                               Equiv-    Equivalent      Log 
	Species             Moles      alents      Fraction     Gamma

	NaX               7.246e-01   7.246e-01   6.802e-01     0.000
	CaX2              9.336e-02   1.867e-01   1.753e-01     0.000
	KX                7.789e-02   7.789e-02   7.311e-02     0.000
	MgX2              3.048e-02   6.095e-02   5.722e-02     0.000
	SrX2              7.564e-03   1.513e-02   1.420e-02     0.000
	HX                4.920e-05   4.920e-05   4.618e-05     0.000

-----------------------------Solution composition------------------------------

	Elements           Molality       Moles

	C                 1.218e-01   1.219e-03
	Ca                8.194e-03   8.205e-05
	Cl                1.997e-01   2.000e-03
	F                 1.742e-04   1.745e-06
	K                 3.667e-03   3.672e-05
	Mg                7.030e-03   7.039e-05
	Na                2.117e-01   2.120e-03
	Sr                8.629e-04   8.640e-06

----------------------------Description of solution----------------------------

                                       pH  =   5.980      Charge balance
                                       pe  =  -1.151      Adjusted to redox equilibrium
      Specific Conductance (µS/cm,  25°C)  = 22576
                          Density (g/cm³)  =   1.00873
                               Volume (L)  =   0.01011
                        Viscosity (mPa s)  =   0.92333
                        Activity of water  =   0.991
                 Ionic strength (mol/kgw)  =   2.589e-01
                       Mass of water (kg)  =   1.001e-02
                 Total alkalinity (eq/kg)  =   4.764e-02
                       Total CO2 (mol/kg)  =   1.218e-01
                         Temperature (°C)  =  25.00
                  Electrical balance (eq)  =   1.127e-12
 Percent error, 100*(Cat-|An|)/(Cat+|An|)  =   0.00
                               Iterations  =  18
                                  Total H  = 1.112086e+00
                                  Total O  = 5.587204e-01

----------------------------Distribution of species----------------------------

                                               Log       Log       Log    mole V
   Species          Molality    Activity  Molality  Activity     Gamma   cm³/mol

   H+              1.329e-06   1.047e-06    -5.877    -5.980    -0.104      0.00
   OH-             1.396e-08   9.579e-09    -7.855    -8.019    -0.164     -3.38
   H2O             5.551e+01   9.907e-01     1.744    -0.004     0.000     18.07
C(-4)         4.219e-16
   CH4             4.219e-16   4.478e-16   -15.375   -15.349     0.026     35.46
C(4)          1.218e-01
   CO2             7.397e-02   7.694e-02    -1.131    -1.114     0.017     34.79
   HCO3-           4.413e-02   3.238e-02    -1.355    -1.490    -0.134     26.24
   NaHCO3          2.255e-03   2.468e-03    -2.647    -2.608     0.039     17.66
   MgHCO3+         1.048e-03   7.325e-04    -2.980    -3.135    -0.156      5.74
   SrHCO3+         1.463e-04   1.069e-04    -3.835    -3.971    -0.136     (0)  
   (CO2)2          9.252e-05   9.623e-05    -4.034    -4.017     0.017     68.75
   KHCO3           3.426e-05   3.637e-05    -4.465    -4.439     0.026     21.42
   CaCO3           5.642e-06   5.989e-06    -5.249    -5.223     0.026    -14.60
   CO3-2           5.096e-06   1.451e-06    -5.293    -5.838    -0.546     -2.29
   MgCO3           2.521e-06   2.676e-06    -5.598    -5.572     0.026    -17.09
   SrCO3           1.883e-07   1.999e-07    -6.725    -6.699     0.026    -14.13
   CaHCO3+         9.402e-09   6.977e-09    -8.027    -8.156    -0.130      9.89
Ca            8.194e-03
   Ca+2            8.189e-03   2.457e-03    -2.087    -2.610    -0.523    -17.12
   CaCO3           5.642e-06   5.989e-06    -5.249    -5.223     0.026    -14.60
   CaHCO3+         9.402e-09   6.977e-09    -8.027    -8.156    -0.130      9.89
   CaOH+           5.235e-10   3.859e-10    -9.281    -9.413    -0.132     (0)  
Cl            1.997e-01
   Cl-             1.997e-01   1.391e-01    -0.700    -0.857    -0.157     18.51
   HCl             3.892e-08   5.016e-08    -7.410    -7.300     0.110     20.36
F             1.742e-04
   F-              1.475e-04   1.011e-04    -3.831    -3.995    -0.164     -0.87
   MgF+            1.817e-05   1.292e-05    -4.741    -4.889    -0.148    -10.33
   NaF             8.453e-06   8.973e-06    -5.073    -5.047     0.026      7.26
   HF              1.496e-07   1.588e-07    -6.825    -6.799     0.026     12.50
   HF2-            8.358e-11   6.162e-11   -10.078   -10.210    -0.132     22.51
H(0)          2.921e-13
   H2              1.460e-13   1.555e-13   -12.836   -12.808     0.027     14.99
K             3.667e-03
   K+              3.633e-03   2.514e-03    -2.440    -2.600    -0.160      9.39
   KHCO3           3.426e-05   3.637e-05    -4.465    -4.439     0.026     21.42
Mg            7.030e-03
   Mg+2            5.961e-03   1.933e-03    -2.225    -2.714    -0.489    -20.83
   MgHCO3+         1.048e-03   7.325e-04    -2.980    -3.135    -0.156      5.74
   MgF+            1.817e-05   1.292e-05    -4.741    -4.889    -0.148    -10.33
   MgCO3           2.521e-06   2.676e-06    -5.598    -5.572     0.026    -17.09
   MgOH+           8.845e-09   6.642e-09    -8.053    -8.178    -0.124     (0)  
Na            2.117e-01
   Na+             2.094e-01   1.542e-01    -0.679    -0.812    -0.133     -0.86
   NaHCO3          2.255e-03   2.468e-03    -2.647    -2.608     0.039     17.66
   NaF             8.453e-06   8.973e-06    -5.073    -5.047     0.026      7.26
O(0)          0.000e+00
   O2              0.000e+00   0.000e+00   -66.780   -66.754     0.026     30.40
Sr            8.629e-04
   Sr+2            7.163e-04   2.158e-04    -3.145    -3.666    -0.521    -16.92
   SrHCO3+         1.463e-04   1.069e-04    -3.835    -3.971    -0.136     (0)  
   SrCO3           1.883e-07   1.999e-07    -6.725    -6.699     0.026    -14.13
   SrOH+           1.450e-11   1.047e-11   -10.839   -10.980    -0.141     (0)  

------------------------------Saturation indices-------------------------------

  Phase               SI** log IAP   log K(298 K,   1 atm)

  Aragonite        -0.11     -8.45   -8.34  CaCO3
  Calcite           0.00     -8.45   -8.45  CaCO3
  CH4(g)          -12.55    -15.35   -2.80  CH4
  CO2(g)            0.35     -1.11   -1.47  CO2
  Dolomite          0.08    -17.00  -17.08  CaMg(CO3)2
  Fluorite          0.00    -10.60  -10.60  CaF2
  H2(g)            -9.71    -12.81   -3.10  H2
  H2O(g)           -1.51     -0.00    1.50  H2O
  Halite           -3.24     -1.67    1.57  NaCl
  O2(g)           -63.86    -66.75   -2.89  O2
  Strontianite     -0.23     -9.50   -9.27  SrCO3
  Sylvite          -4.36     -3.46    0.90  KCl

**For a gas, SI = log10(fugacity). Fugacity = pressure * phi / 1 atm.
  For ideal gases, phi = 1.

------------------
End of simulation.
------------------

------------------------------------
Reading input data for simulation 4.
------------------------------------

	MIX
		2	0.001
	USE pure_phases 2
	USE exchange 2
	END
-----------------------------------------
Beginning of batch-reaction calculations.
-----------------------------------------

Reaction step 1.

Using mix 1.	
Using exchange 2.	Exchange assemblage after simulation 1.
Using pure phase assemblage 2.	

Mixture 1.	

	  1.000e-03 Solution 2	                                                       

-------------------------------Phase assemblage--------------------------------

                                                      Moles in assemblage
Phase               SI  log IAP  log K(T, P)   Initial       Final       Delta

Calcite           0.00    -8.45     -8.45    1.000e-01   9.989e-02  -1.053e-04
Fluorite          0.00   -10.60    -10.60    1.000e-01   1.000e-01  -8.833e-08

-----------------------------Exchange composition------------------------------

X                1.065e+00 mol

	                               Equiv-    Equivalent      Log 
	Species             Moles      alents      Fraction     Gamma

	NaX               7.265e-01   7.265e-01   6.820e-01     0.000
	CaX2              9.232e-02   1.846e-01   1.733e-01     0.000
	KX                7.792e-02   7.792e-02   7.314e-02     0.000
	MgX2              3.054e-02   6.108e-02   5.733e-02     0.000
	SrX2              7.572e-03   1.514e-02   1.421e-02     0.000
	HX                4.446e-05   4.446e-05   4.173e-05     0.000

-----------------------------Solution composition------------------------------

	Elements           Molality       Moles

	C                 1.052e-01   1.053e-04
	Ca                7.878e-03   7.887e-06
	Cl                1.998e-01   2.000e-04
	F                 1.766e-04   1.768e-07
	K                 3.615e-03   3.619e-06
	Mg                6.779e-03   6.787e-06
	Na                2.093e-01   2.096e-04
	Sr                8.293e-04   8.302e-07

----------------------------Description of solution----------------------------

                                       pH  =   6.029      Charge balance
                                       pe  =  -1.186      Adjusted to redox equilibrium
      Specific Conductance (µS/cm,  25°C)  = 22419
                          Density (g/cm³)  =   1.00840
                               Volume (L)  =   0.00101
                        Viscosity (mPa s)  =   0.92154
                        Activity of water  =   0.991
                 Ionic strength (mol/kgw)  =   2.551e-01
                       Mass of water (kg)  =   1.001e-03
                 Total alkalinity (eq/kg)  =   4.398e-02
                       Total CO2 (mol/kg)  =   1.052e-01
                         Temperature (°C)  =  25.00
                  Electrical balance (eq)  =   1.127e-13
 Percent error, 100*(Cat-|An|)/(Cat+|An|)  =   0.00
                               Iterations  =  21
                                  Total H  = 1.111790e-01
                                  Total O  = 5.582211e-02

----------------------------Distribution of species----------------------------

                                               Log       Log       Log    mole V
   Species          Molality    Activity  Molality  Activity     Gamma   cm³/mol

   H+              1.185e-06   9.344e-07    -5.926    -6.029    -0.103      0.00
   OH-             1.562e-08   1.073e-08    -7.806    -7.969    -0.163     -3.38
   H2O             5.551e+01   9.910e-01     1.744    -0.004     0.000     18.07
C(-4)         2.679e-16
   CH4             2.679e-16   2.841e-16   -15.572   -15.547     0.026     35.46
C(4)          1.052e-01
   CO2             6.109e-02   6.351e-02    -1.214    -1.197     0.017     34.79
   HCO3-           4.077e-02   2.996e-02    -1.390    -1.524    -0.134     26.22
   NaHCO3          2.069e-03   2.261e-03    -2.684    -2.646     0.039     17.66
   MgHCO3+         9.465e-04   6.626e-04    -3.024    -3.179    -0.155      5.73
   SrHCO3+         1.321e-04   9.660e-05    -3.879    -4.015    -0.136     (0)  
   (CO2)2          6.307e-05   6.557e-05    -4.200    -4.183     0.017     68.75
   KHCO3           3.135e-05   3.324e-05    -4.504    -4.478     0.026     21.42
   CaCO3           5.647e-06   5.989e-06    -5.248    -5.223     0.026    -14.60
   CO3-2           5.255e-06   1.503e-06    -5.279    -5.823    -0.543     -2.31
   MgCO3           2.557e-06   2.712e-06    -5.592    -5.567     0.026    -17.09
   SrCO3           1.908e-07   2.023e-07    -6.719    -6.694     0.026    -14.13
   CaHCO3+         8.384e-09   6.228e-09    -8.077    -8.206    -0.129      9.89
Ca            7.878e-03
   Ca+2            7.872e-03   2.371e-03    -2.104    -2.625    -0.521    -17.12
   CaCO3           5.647e-06   5.989e-06    -5.248    -5.223     0.026    -14.60
   CaHCO3+         8.384e-09   6.228e-09    -8.077    -8.206    -0.129      9.89
   CaOH+           5.658e-10   4.174e-10    -9.247    -9.379    -0.132     (0)  
Cl            1.998e-01
   Cl-             1.998e-01   1.394e-01    -0.699    -0.856    -0.156     18.51
   HCl             3.493e-08   4.486e-08    -7.457    -7.348     0.109     20.36
F             1.766e-04
   F-              1.498e-04   1.030e-04    -3.824    -3.987    -0.163     -0.87
   MgF+            1.806e-05   1.286e-05    -4.743    -4.891    -0.147    -10.33
   NaF             8.531e-06   9.047e-06    -5.069    -5.044     0.026      7.26
   HF              1.361e-07   1.443e-07    -6.866    -6.841     0.026     12.50
   HF2-            7.727e-11   5.700e-11   -10.112   -10.244    -0.132     22.51
H(0)          2.738e-13
   H2              1.369e-13   1.456e-13   -12.864   -12.837     0.027     14.99
K             3.615e-03
   K+              3.584e-03   2.485e-03    -2.446    -2.605    -0.159      9.39
   KHCO3           3.135e-05   3.324e-05    -4.504    -4.478     0.026     21.42
Mg            6.779e-03
   Mg+2            5.812e-03   1.890e-03    -2.236    -2.723    -0.488    -20.84
   MgHCO3+         9.465e-04   6.626e-04    -3.024    -3.179    -0.155      5.73
   MgF+            1.806e-05   1.286e-05    -4.743    -4.891    -0.147    -10.33
   MgCO3           2.557e-06   2.712e-06    -5.592    -5.567     0.026    -17.09
   MgOH+           9.684e-09   7.279e-09    -8.014    -8.138    -0.124     (0)  
Na            2.093e-01
   Na+             2.073e-01   1.527e-01    -0.683    -0.816    -0.133     -0.86
   NaHCO3          2.069e-03   2.261e-03    -2.684    -2.646     0.039     17.66
   NaF             8.531e-06   9.047e-06    -5.069    -5.044     0.026      7.26
O(0)          0.000e+00
   O2              0.000e+00   0.000e+00   -66.722   -66.697     0.026     30.40
Sr            8.293e-04
   Sr+2            6.970e-04   2.108e-04    -3.157    -3.676    -0.519    -16.93
   SrHCO3+         1.321e-04   9.660e-05    -3.879    -4.015    -0.136     (0)  
   SrCO3           1.908e-07   2.023e-07    -6.719    -6.694     0.026    -14.13
   SrOH+           1.586e-11   1.147e-11   -10.800   -10.941    -0.141     (0)  

------------------------------Saturation indices-------------------------------

  Phase               SI** log IAP   log K(298 K,   1 atm)

  Aragonite        -0.11     -8.45   -8.34  CaCO3
  Calcite           0.00     -8.45   -8.45  CaCO3
  CH4(g)          -12.74    -15.55   -2.80  CH4
  CO2(g)            0.27     -1.20   -1.47  CO2
  Dolomite          0.09    -16.99  -17.08  CaMg(CO3)2
  Fluorite          0.00    -10.60  -10.60  CaF2
  H2(g)            -9.74    -12.84   -3.10  H2
  H2O(g)           -1.51     -0.00    1.50  H2O
  Halite           -3.24     -1.67    1.57  NaCl
  O2(g)           -63.80    -66.70   -2.89  O2
  Strontianite     -0.23     -9.50   -9.27  SrCO3
  Sylvite          -4.36     -3.46    0.90  KCl

**For a gas, SI = log10(fugacity). Fugacity = pressure * phi / 1 atm.
  For ideal gases, phi = 1.

------------------
End of simulation.
------------------

------------------------------------
Reading input data for simulation 5.
------------------------------------

	MIX
		2	0.0001
	USE pure_phases 2
	USE exchange 2
	END
-----------------------------------------
Beginning of batch-reaction calculations.
-----------------------------------------

Reaction step 1.

Using mix 1.	
Using exchange 2.	Exchange assemblage after simulation 1.
Using pure phase assemblage 2.	

Mixture 1.	

	  1.000e-04 Solution 2	                                                       

-------------------------------Phase assemblage--------------------------------

                                                      Moles in assemblage
Phase               SI  log IAP  log K(T, P)   Initial       Final       Delta

Calcite           0.00    -8.45     -8.45    1.000e-01   1.000e-01  -4.453e-06
Fluorite          0.00   -10.60    -10.60    1.000e-01   1.000e-01  -9.102e-09

-----------------------------Exchange composition------------------------------

X                1.065e+00 mol

	                               Equiv-    Equivalent      Log 
	Species             Moles      alents      Fraction     Gamma

	NaX               7.267e-01   7.267e-01   6.821e-01     0.000
	CaX2              9.223e-02   1.845e-01   1.731e-01     0.000
	KX                7.792e-02   7.792e-02   7.315e-02     0.000
	MgX2              3.055e-02   6.109e-02   5.735e-02     0.000
	SrX2              7.573e-03   1.515e-02   1.422e-02     0.000
	HX                2.469e-05   2.469e-05   2.317e-05     0.000

-----------------------------Solution composition------------------------------

	Elements           Molality       Moles

	C                 4.451e-02   4.453e-06
	Ca                6.879e-03   6.881e-07
	Cl                1.999e-01   2.000e-05
	F                 1.830e-04   1.830e-08
	K                 3.374e-03   3.375e-07
	Mg                5.612e-03   5.614e-07
	Na                1.960e-01   1.961e-05
	Sr                6.779e-04   6.781e-08

----------------------------Description of solution----------------------------

                                       pH  =   6.310      Charge balance
                                       pe  =  -2.050      Adjusted to redox equilibrium
      Specific Conductance (µS/cm,  25°C)  = 21539
                          Density (g/cm³)  =   1.00695
                               Volume (L)  =   0.00010
                        Viscosity (mPa s)  =   0.91446
                        Activity of water  =   0.992
                 Ionic strength (mol/kgw)  =   2.366e-01
                       Mass of water (kg)  =   1.000e-04
                 Total alkalinity (eq/kg)  =   2.563e-02
                       Total CO2 (mol/kg)  =   4.451e-02
                         Temperature (°C)  =  25.00
                  Electrical balance (eq)  =   1.126e-14
 Percent error, 100*(Cat-|An|)/(Cat+|An|)  =   0.00
                               Iterations  =  23
                                  Total H  = 1.110758e-02
                                  Total O  = 5.563980e-03

----------------------------Distribution of species----------------------------

                                               Log       Log       Log    mole V
   Species          Molality    Activity  Molality  Activity     Gamma   cm³/mol

   H+              6.192e-07   4.899e-07    -6.208    -6.310    -0.102      0.00
   OH-             2.957e-08   2.050e-08    -7.529    -7.688    -0.159     -3.42
   H2O             5.551e+01   9.923e-01     1.744    -0.003     0.000     18.07
C(-4)         3.826e-12
   CH4             3.826e-12   4.041e-12   -11.417   -11.394     0.024     35.46
C(4)          4.451e-02
   HCO3-           2.386e-02   1.764e-02    -1.622    -1.754    -0.131     26.13
   CO2             1.888e-02   1.958e-02    -1.724    -1.708     0.016     34.79
   NaHCO3          1.158e-03   1.257e-03    -2.936    -2.901     0.036     17.66
   MgHCO3+         4.928e-04   3.478e-04    -3.307    -3.459    -0.151      5.73
   SrHCO3+         6.889e-05   5.070e-05    -4.162    -4.295    -0.133     (0)  
   KHCO3           1.750e-05   1.848e-05    -4.757    -4.733     0.024     21.42
   (CO2)2          6.010e-06   6.230e-06    -5.221    -5.206     0.016     68.75
   CO3-2           5.756e-06   1.688e-06    -5.240    -5.773    -0.533     -2.40
   CaCO3           5.671e-06   5.989e-06    -5.246    -5.223     0.024    -14.60
   MgCO3           2.571e-06   2.715e-06    -5.590    -5.566     0.024    -17.09
   SrCO3           1.918e-07   2.025e-07    -6.717    -6.693     0.024    -14.13
   CaHCO3+         4.370e-09   3.265e-09    -8.359    -8.486    -0.127      9.89
Ca            6.879e-03
   Ca+2            6.873e-03   2.111e-03    -2.163    -2.675    -0.513    -17.15
   CaCO3           5.671e-06   5.989e-06    -5.246    -5.223     0.024    -14.60
   CaHCO3+         4.370e-09   3.265e-09    -8.359    -8.486    -0.127      9.89
   CaOH+           9.590e-10   7.098e-10    -9.018    -9.149    -0.131     (0)  
Cl            1.999e-01
   Cl-             1.999e-01   1.406e-01    -0.699    -0.852    -0.153     18.49
   HCl             1.881e-08   2.372e-08    -7.726    -7.625     0.101     20.36
F             1.830e-04
   F-              1.574e-04   1.091e-04    -3.803    -3.962    -0.159     -0.89
   MgF+            1.694e-05   1.215e-05    -4.771    -4.915    -0.144    -10.34
   NaF             8.574e-06   9.054e-06    -5.067    -5.043     0.024      7.26
   HF              7.591e-08   8.016e-08    -7.120    -7.096     0.024     12.50
   HF2-            4.534e-11   3.356e-11   -10.343   -10.474    -0.131     22.49
H(0)          4.033e-12
   H2              2.016e-12   2.135e-12   -11.695   -11.671     0.025     14.99
K             3.374e-03
   K+              3.356e-03   2.346e-03    -2.474    -2.630    -0.156      9.37
   KHCO3           1.750e-05   1.848e-05    -4.757    -4.733     0.024     21.42
Mg            5.612e-03
   Mg+2            5.100e-03   1.685e-03    -2.292    -2.773    -0.481    -20.86
   MgHCO3+         4.928e-04   3.478e-04    -3.307    -3.459    -0.151      5.73
   MgF+            1.694e-05   1.215e-05    -4.771    -4.915    -0.144    -10.34
   MgCO3           2.571e-06   2.715e-06    -5.590    -5.566     0.024    -17.09
   MgOH+           1.640e-08   1.240e-08    -7.785    -7.907    -0.122     (0)  
Na            1.960e-01
   Na+             1.949e-01   1.442e-01    -0.710    -0.841    -0.131     -0.89
   NaHCO3          1.158e-03   1.257e-03    -2.936    -2.901     0.036     17.66
   NaF             8.574e-06   9.054e-06    -5.067    -5.043     0.024      7.26
O(0)          0.000e+00
   O2              0.000e+00   0.000e+00   -69.052   -69.028     0.024     30.40
Sr            6.779e-04
   Sr+2            6.088e-04   1.879e-04    -3.216    -3.726    -0.511    -16.96
   SrHCO3+         6.889e-05   5.070e-05    -4.162    -4.295    -0.133     (0)  
   SrCO3           1.918e-07   2.025e-07    -6.717    -6.693     0.024    -14.13
   SrOH+           2.682e-11   1.952e-11   -10.572   -10.709    -0.138     (0)  

------------------------------Saturation indices-------------------------------

  Phase               SI** log IAP   log K(298 K,   1 atm)

  Aragonite        -0.11     -8.45   -8.34  CaCO3
  Calcite           0.00     -8.45   -8.45  CaCO3
  CH4(g)           -8.59    -11.39   -2.80  CH4
  CO2(g)           -0.24     -1.71   -1.47  CO2
  Dolomite          0.09    -16.99  -17.08  CaMg(CO3)2
  Fluorite          0.00    -10.60  -10.60  CaF2
  H2(g)            -8.57    -11.67   -3.10  H2
  H2O(g)           -1.51     -0.00    1.50  H2O
  Halite           -3.26     -1.69    1.57  NaCl
  O2(g)           -66.14    -69.03   -2.89  O2
  Strontianite     -0.23     -9.50   -9.27  SrCO3
  Sylvite          -4.38     -3.48    0.90  KCl

**For a gas, SI = log10(fugacity). Fugacity = pressure * phi / 1 atm.
  For ideal gases, phi = 1.

------------------
End of simulation.
------------------

------------------------------------
Reading input data for simulation 6.
------------------------------------

	MIX
		2	0.00001
	USE pure_phases 2
	USE exchange 2
	END
-----------------------------------------
Beginning of batch-reaction calculations.
-----------------------------------------

Reaction step 1.

Using mix 1.	
Using exchange 2.	Exchange assemblage after simulation 1.
Using pure phase assemblage 2.	

Mixture 1.	

	  1.000e-05 Solution 2	                                                       

-------------------------------Phase assemblage--------------------------------

                                                      Moles in assemblage
Phase               SI  log IAP  log K(T, P)   Initial       Final       Delta

Calcite           0.00    -8.45     -8.45    1.000e-01   1.000e-01  -1.879e-07
Fluorite          0.00   -10.60    -10.60    1.000e-01   1.000e-01  -8.885e-10

-----------------------------Exchange composition------------------------------

X                1.065e+00 mol

	                               Equiv-    Equivalent      Log 
	Species             Moles      alents      Fraction     Gamma

	NaX               7.267e-01   7.267e-01   6.821e-01     0.000
	CaX2              9.222e-02   1.844e-01   1.731e-01     0.000
	KX                7.792e-02   7.792e-02   7.315e-02     0.000
	MgX2              3.055e-02   6.109e-02   5.735e-02     0.000
	SrX2              7.573e-03   1.515e-02   1.422e-02     0.000
	HX                1.279e-05   1.279e-05   1.201e-05     0.000

-----------------------------Solution composition------------------------------

	Elements           Molality       Moles

	C                 1.880e-02   1.880e-07
	Ca                6.258e-03   6.258e-08
	Cl                2.000e-01   2.000e-06
	F                 1.877e-04   1.877e-09
	K                 3.214e-03   3.214e-08
	Mg                4.913e-03   4.914e-08
	Na                1.872e-01   1.872e-06
	Sr                5.880e-04   5.880e-09

----------------------------Description of solution----------------------------

                                       pH  =   6.613      Charge balance
                                       pe  =  -2.549      Adjusted to redox equilibrium
      Specific Conductance (µS/cm,  25°C)  = 20907
                          Density (g/cm³)  =   1.00613
                               Volume (L)  =   0.00001
                        Viscosity (mPa s)  =   0.91101
                        Activity of water  =   0.993
                 Ionic strength (mol/kgw)  =   2.244e-01
                       Mass of water (kg)  =   1.000e-05
                 Total alkalinity (eq/kg)  =   1.374e-02
                       Total CO2 (mol/kg)  =   1.880e-02
                         Temperature (°C)  =  25.00
                  Electrical balance (eq)  =   1.122e-15
 Percent error, 100*(Cat-|An|)/(Cat+|An|)  =   0.00
                               Iterations  =  54
                                  Total H  = 1.110363e-03
                                  Total O  = 5.556262e-04

----------------------------Distribution of species----------------------------

                                               Log       Log       Log    mole V
   Species          Molality    Activity  Molality  Activity     Gamma   cm³/mol

   H+              3.073e-07   2.438e-07    -6.512    -6.613    -0.101      0.00
   OH-             5.910e-08   4.123e-08    -7.228    -7.385    -0.156     -3.45
   H2O             5.551e+01   9.929e-01     1.744    -0.003     0.000     18.07
C(-4)         3.787e-11
   CH4             3.787e-11   3.988e-11   -10.422   -10.399     0.022     35.46
C(4)          1.880e-02
   HCO3-           1.282e-02   9.514e-03    -1.892    -2.022    -0.130     26.07
   CO2             5.075e-03   5.252e-03    -2.295    -2.280     0.015     34.79
   NaHCO3          6.024e-04   6.513e-04    -3.220    -3.186     0.034     17.66
   MgHCO3+         2.439e-04   1.731e-04    -3.613    -3.762    -0.149      5.72
   SrHCO3+         3.413e-05   2.523e-05    -4.467    -4.598    -0.131     (0)  
   KHCO3           9.092e-06   9.574e-06    -5.041    -5.019     0.022     21.42
   CO3-2           6.134e-06   1.830e-06    -5.212    -5.737    -0.525     -2.47
   CaCO3           5.687e-06   5.989e-06    -5.245    -5.223     0.022    -14.60
   MgCO3           2.579e-06   2.716e-06    -5.589    -5.566     0.022    -17.09
   (CO2)2          4.333e-07   4.484e-07    -6.363    -6.348     0.015     68.75
   SrCO3           1.924e-07   2.026e-07    -6.716    -6.693     0.022    -14.13
   CaHCO3+         2.166e-09   1.625e-09    -8.664    -8.789    -0.125      9.88
Ca            6.258e-03
   Ca+2            6.252e-03   1.948e-03    -2.204    -2.710    -0.507    -17.17
   CaCO3           5.687e-06   5.989e-06    -5.245    -5.223     0.022    -14.60
   CaHCO3+         2.166e-09   1.625e-09    -8.664    -8.789    -0.125      9.88
   CaOH+           1.774e-09   1.317e-09    -8.751    -8.881    -0.130     (0)  
Cl            2.000e-01
   Cl-             2.000e-01   1.414e-01    -0.699    -0.850    -0.151     18.48
   HCl             9.528e-09   1.187e-08    -8.021    -7.925     0.096     20.36
F             1.877e-04
   F-              1.629e-04   1.136e-04    -3.788    -3.945    -0.156     -0.90
   MgF+            1.619e-05   1.167e-05    -4.791    -4.933    -0.142    -10.34
   NaF             8.598e-06   9.054e-06    -5.066    -5.043     0.022      7.26
   HF              3.944e-08   4.153e-08    -7.404    -7.382     0.022     12.50
   HF2-            2.440e-11   1.810e-11   -10.613   -10.742    -0.130     22.48
H(0)          9.964e-12
   H2              4.982e-12   5.260e-12   -11.303   -11.279     0.024     14.99
K             3.214e-03
   K+              3.205e-03   2.253e-03    -2.494    -2.647    -0.153      9.36
   KHCO3           9.092e-06   9.574e-06    -5.041    -5.019     0.022     21.42
Mg            4.913e-03
   Mg+2            4.651e-03   1.555e-03    -2.332    -2.808    -0.476    -20.88
   MgHCO3+         2.439e-04   1.731e-04    -3.613    -3.762    -0.149      5.72
   MgF+            1.619e-05   1.167e-05    -4.791    -4.933    -0.142    -10.34
   MgCO3           2.579e-06   2.716e-06    -5.589    -5.566     0.022    -17.09
   MgOH+           3.032e-08   2.299e-08    -7.518    -7.638    -0.120     (0)  
Na            1.872e-01
   Na+             1.866e-01   1.385e-01    -0.729    -0.859    -0.129     -0.90
   NaHCO3          6.024e-04   6.513e-04    -3.220    -3.186     0.034     17.66
   NaF             8.598e-06   9.054e-06    -5.066    -5.043     0.022      7.26
O(0)          0.000e+00
   O2              0.000e+00   0.000e+00   -69.833   -69.811     0.022     30.40
Sr            5.880e-04
   Sr+2            5.536e-04   1.733e-04    -3.257    -3.761    -0.504    -16.98
   SrHCO3+         3.413e-05   2.523e-05    -4.467    -4.598    -0.131     (0)  
   SrCO3           1.924e-07   2.026e-07    -6.716    -6.693     0.022    -14.13
   SrOH+           4.952e-11   3.621e-11   -10.305   -10.441    -0.136     (0)  

------------------------------Saturation indices-------------------------------

  Phase               SI** log IAP   log K(298 K,   1 atm)

  Aragonite        -0.11     -8.45   -8.34  CaCO3
  Calcite           0.00     -8.45   -8.45  CaCO3
  CH4(g)           -7.60    -10.40   -2.80  CH4
  CO2(g)           -0.81     -2.28   -1.47  CO2
  Dolomite          0.09    -16.99  -17.08  CaMg(CO3)2
  Fluorite          0.00    -10.60  -10.60  CaF2
  H2(g)            -8.18    -11.28   -3.10  H2
  H2O(g)           -1.51     -0.00    1.50  H2O
  Halite           -3.28     -1.71    1.57  NaCl
  O2(g)           -66.92    -69.81   -2.89  O2
  Strontianite     -0.23     -9.50   -9.27  SrCO3
  Sylvite          -4.40     -3.50    0.90  KCl

**For a gas, SI = log10(fugacity). Fugacity = pressure * phi / 1 atm.
  For ideal gases, phi = 1.

------------------
End of simulation.
------------------

------------------------------------
Reading input data for simulation 7.
------------------------------------

	MIX
		2	0.000001
	USE pure_phases 2
	USE exchange 2
	END
-----------------------------------------
Beginning of batch-reaction calculations.
-----------------------------------------

Reaction step 1.

WARNING: Maximum iterations exceeded, 100

WARNING: Numerical method failed with this set of convergence parameters.

WARNING: Trying smaller step size, pe step size 10, 5 ... 

Using mix 1.	
Using exchange 2.	Exchange assemblage after simulation 1.
Using pure phase assemblage 2.	

Mixture 1.	

	  1.000e-06 Solution 2	                                                       

-------------------------------Phase assemblage--------------------------------

                                                      Moles in assemblage
Phase               SI  log IAP  log K(T, P)   Initial       Final       Delta

Calcite           0.00    -8.45     -8.45    1.000e-01   1.000e-01  -1.589e-08
Fluorite          0.00   -10.60    -10.60    1.000e-01   1.000e-01  -4.420e-11

-----------------------------Exchange composition------------------------------

X                1.065e+00 mol

	                               Equiv-    Equivalent      Log 
	Species             Moles      alents      Fraction     Gamma

	NaX               7.267e-01   7.267e-01   6.821e-01    -0.000
	CaX2              9.222e-02   1.844e-01   1.731e-01    -0.000
	KX                7.792e-02   7.792e-02   7.315e-02    -0.000
	MgX2              3.055e-02   6.109e-02   5.735e-02    -0.000
	SrX2              7.573e-03   1.515e-02   1.422e-02    -0.000
	HX                1.121e-05   1.121e-05   1.052e-05    -0.000

-----------------------------Solution composition------------------------------

	Elements           Molality       Moles

	C                 1.599e-02   1.599e-08
	Ca                6.174e-03   6.174e-09
	Cl                2.000e-01   2.000e-07
	F                 1.884e-04   1.884e-10
	K                 3.192e-03   3.192e-09
	Mg                4.821e-03   4.821e-09
	Na                1.859e-01   1.860e-07
	Sr                5.761e-04   5.761e-10

----------------------------Description of solution----------------------------

                                       pH  =   6.673      Charge balance
                                       pe  =  -2.565      Adjusted to redox equilibrium
      Specific Conductance (µS/cm,  25°C)  = 20817
                          Density (g/cm³)  =   1.00602
                               Volume (L)  =   0.00000
                        Viscosity (mPa s)  =   0.91060
                        Activity of water  =   0.993
                 Ionic strength (mol/kgw)  =   2.228e-01
                       Mass of water (kg)  =   1.000e-06
                 Total alkalinity (eq/kg)  =   1.210e-02
                       Total CO2 (mol/kg)  =   1.599e-02
                         Temperature (°C)  =  25.00
                  Electrical balance (eq)  =   1.127e-16
 Percent error, 100*(Cat-|An|)/(Cat+|An|)  =   0.00
                               Iterations  = 129 (230 overall)
                                  Total H  = 1.110323e-04
                                  Total O  = 5.555418e-05

----------------------------Distribution of species----------------------------

                                               Log       Log       Log    mole V
   Species          Molality    Activity  Molality  Activity     Gamma   cm³/mol

   H+              2.677e-07   2.124e-07    -6.572    -6.673    -0.100      0.00
   OH-             6.778e-08   4.732e-08    -7.169    -7.325    -0.156     -3.45
   H2O             5.551e+01   9.929e-01     1.744    -0.003     0.000     18.07
C(-4)         1.314e-11
   CH4             1.314e-11   1.383e-11   -10.881   -10.859     0.022     35.46
C(4)          1.599e-02
   HCO3-           1.129e-02   8.386e-03    -1.947    -2.076    -0.129     26.06
   CO2             3.899e-03   4.033e-03    -2.409    -2.394     0.015     34.79
   NaHCO3          5.282e-04   5.708e-04    -3.277    -3.244     0.034     17.66
   MgHCO3+         2.123e-04   1.508e-04    -3.673    -3.822    -0.149      5.72
   SrHCO3+         2.972e-05   2.198e-05    -4.527    -4.658    -0.131     (0)  
   KHCO3           7.971e-06   8.391e-06    -5.098    -5.076     0.022     21.42
   CO3-2           6.190e-06   1.852e-06    -5.208    -5.732    -0.524     -2.48
   CaCO3           5.689e-06   5.989e-06    -5.245    -5.223     0.022    -14.60
   MgCO3           2.580e-06   2.716e-06    -5.588    -5.566     0.022    -17.09
   (CO2)2          2.556e-07   2.644e-07    -6.592    -6.578     0.015     68.75
   SrCO3           1.924e-07   2.026e-07    -6.716    -6.693     0.022    -14.13
   CaHCO3+         1.886e-09   1.416e-09    -8.724    -8.849    -0.125      9.88
Ca            6.174e-03
   Ca+2            6.168e-03   1.925e-03    -2.210    -2.716    -0.506    -17.17
   CaCO3           5.689e-06   5.989e-06    -5.245    -5.223     0.022    -14.60
   CaOH+           2.012e-09   1.494e-09    -8.696    -8.826    -0.129     (0)  
   CaHCO3+         1.886e-09   1.416e-09    -8.724    -8.849    -0.125      9.88
Cl            2.000e-01
   Cl-             2.000e-01   1.415e-01    -0.699    -0.849    -0.150     18.48
   HCl             8.322e-09   1.035e-08    -8.080    -7.985     0.095     20.36
F             1.884e-04
   F-              1.637e-04   1.143e-04    -3.786    -3.942    -0.156     -0.90
   MgF+            1.608e-05   1.160e-05    -4.794    -4.935    -0.142    -10.34
   NaF             8.602e-06   9.054e-06    -5.065    -5.043     0.022      7.26
   HF              3.458e-08   3.640e-08    -7.461    -7.439     0.022     12.50
   HF2-            2.150e-11   1.596e-11   -10.668   -10.797    -0.129     22.48
H(0)          8.172e-12
   H2              4.086e-12   4.312e-12   -11.389   -11.365     0.023     14.99
K             3.192e-03
   K+              3.184e-03   2.240e-03    -2.497    -2.650    -0.153      9.36
   KHCO3           7.971e-06   8.391e-06    -5.098    -5.076     0.022     21.42
Mg            4.821e-03
   Mg+2            4.590e-03   1.537e-03    -2.338    -2.813    -0.475    -20.88
   MgHCO3+         2.123e-04   1.508e-04    -3.673    -3.822    -0.149      5.72
   MgF+            1.608e-05   1.160e-05    -4.794    -4.935    -0.142    -10.34
   MgCO3           2.580e-06   2.716e-06    -5.588    -5.566     0.022    -17.09
   MgOH+           3.438e-08   2.609e-08    -7.464    -7.584    -0.120     (0)  
Na            1.859e-01
   Na+             1.854e-01   1.377e-01    -0.732    -0.861    -0.129     -0.90
   NaHCO3          5.282e-04   5.708e-04    -3.277    -3.244     0.034     17.66
   NaF             8.602e-06   9.054e-06    -5.065    -5.043     0.022      7.26
O(0)          0.000e+00
   O2              0.000e+00   0.000e+00   -69.660   -69.638     0.022     30.40
Sr            5.761e-04
   Sr+2            5.462e-04   1.714e-04    -3.263    -3.766    -0.503    -16.99
   SrHCO3+         2.972e-05   2.198e-05    -4.527    -4.658    -0.131     (0)  
   SrCO3           1.924e-07   2.026e-07    -6.716    -6.693     0.022    -14.13
   SrOH+           5.614e-11   4.109e-11   -10.251   -10.386    -0.136     (0)  

------------------------------Saturation indices-------------------------------

  Phase               SI** log IAP   log K(298 K,   1 atm)

  Aragonite        -0.11     -8.45   -8.34  CaCO3
  Calcite           0.00     -8.45   -8.45  CaCO3
  CH4(g)           -8.06    -10.86   -2.80  CH4
  CO2(g)           -0.93     -2.39   -1.47  CO2
  Dolomite          0.09    -16.99  -17.08  CaMg(CO3)2
  Fluorite          0.00    -10.60  -10.60  CaF2
  H2(g)            -8.27    -11.37   -3.10  H2
  H2O(g)           -1.51     -0.00    1.50  H2O
  Halite           -3.28     -1.71    1.57  NaCl
  O2(g)           -66.75    -69.64   -2.89  O2
  Strontianite     -0.23     -9.50   -9.27  SrCO3
  Sylvite          -4.40     -3.50    0.90  KCl

**For a gas, SI = log10(fugacity). Fugacity = pressure * phi / 1 atm.
  For ideal gases, phi = 1.

------------------
End of simulation.
------------------

------------------------------------
Reading input data for simulation 8.
------------------------------------

	MIX
		2	0.0000001
	USE pure_phases 2
	USE exchange 2
	END
-----------------------------------------
Beginning of batch-reaction calculations.
-----------------------------------------

Reaction step 1.

WARNING: Maximum iterations exceeded, 100

WARNING: Numerical method failed with this set of convergence parameters.

WARNING: Trying smaller step size, pe step size 10, 5 ... 

Using mix 1.	
Using exchange 2.	Exchange assemblage after simulation 1.
Using pure phase assemblage 2.	

Mixture 1.	

	  1.000e-07 Solution 2	                                                       

-------------------------------Phase assemblage--------------------------------

                                                      Moles in assemblage
Phase               SI  log IAP  log K(T, P)   Initial       Final       Delta

Calcite           0.00    -8.45     -8.45    1.000e-01   1.000e-01  -1.471e-09
Fluorite          0.00   -10.60    -10.60    1.000e-01   1.000e-01   4.058e-11

-----------------------------Exchange composition------------------------------

X                1.065e+00 mol

	                               Equiv-    Equivalent      Log 
	Species             Moles      alents      Fraction     Gamma

	NaX               7.267e-01   7.267e-01   6.821e-01     0.000
	CaX2              9.222e-02   1.844e-01   1.731e-01     0.000
	KX                7.792e-02   7.792e-02   7.315e-02     0.000
	MgX2              3.055e-02   6.109e-02   5.735e-02     0.000
	SrX2              7.573e-03   1.515e-02   1.422e-02     0.000
	HX                1.105e-05   1.105e-05   1.037e-05     0.000

-----------------------------Solution composition------------------------------

	Elements           Molality       Moles

	C                 1.571e-02   1.571e-09
	Ca                6.165e-03   6.166e-10
	Cl                2.000e-01   2.000e-08
	F                 1.885e-04   1.885e-11
	K                 3.190e-03   3.190e-10
	Mg                4.811e-03   4.812e-10
	Na                1.858e-01   1.858e-08
	Sr                5.749e-04   5.749e-11

----------------------------Description of solution----------------------------

                                       pH  =   6.679      Charge balance
                                       pe  =  -2.715      Adjusted to redox equilibrium
      Specific Conductance (µS/cm,  25°C)  = 20807
                          Density (g/cm³)  =   1.00601
                               Volume (L)  =   0.00000
                        Viscosity (mPa s)  =   0.91056
                        Activity of water  =   0.993
                 Ionic strength (mol/kgw)  =   2.226e-01
                       Mass of water (kg)  =   1.000e-07
                 Total alkalinity (eq/kg)  =   1.193e-02
                       Total CO2 (mol/kg)  =   1.571e-02
                         Temperature (°C)  =  25.00
                  Electrical balance (eq)  =   1.127e-17
 Percent error, 100*(Cat-|An|)/(Cat+|An|)  =   0.00
                               Iterations  = 137 (238 overall)
                                  Total H  = 1.110319e-05
                                  Total O  = 5.555334e-06

----------------------------Distribution of species----------------------------

                                               Log       Log       Log    mole V
   Species          Molality    Activity  Molality  Activity     Gamma   cm³/mol

   H+              2.636e-07   2.092e-07    -6.579    -6.679    -0.100      0.00
   OH-             6.881e-08   4.804e-08    -7.162    -7.318    -0.156     -3.45
   H2O             5.551e+01   9.929e-01     1.744    -0.003     0.000     18.07
C(-4)         1.790e-10
   CH4             1.790e-10   1.885e-10    -9.747    -9.725     0.022     35.46
C(4)          1.571e-02
   HCO3-           1.114e-02   8.270e-03    -1.953    -2.083    -0.129     26.06
   CO2             3.787e-03   3.917e-03    -2.422    -2.407     0.015     34.79
   NaHCO3          5.206e-04   5.625e-04    -3.283    -3.250     0.034     17.66
   MgHCO3+         2.091e-04   1.485e-04    -3.680    -3.828    -0.149      5.72
   SrHCO3+         2.927e-05   2.165e-05    -4.534    -4.665    -0.131     (0)  
   KHCO3           7.856e-06   8.269e-06    -5.105    -5.083     0.022     21.42
   CO3-2           6.196e-06   1.854e-06    -5.208    -5.732    -0.524     -2.48
   CaCO3           5.690e-06   5.989e-06    -5.245    -5.223     0.022    -14.60
   MgCO3           2.580e-06   2.716e-06    -5.588    -5.566     0.022    -17.09
   (CO2)2          2.412e-07   2.495e-07    -6.618    -6.603     0.015     68.75
   SrCO3           1.924e-07   2.026e-07    -6.716    -6.693     0.022    -14.13
   CaHCO3+         1.858e-09   1.394e-09    -8.731    -8.856    -0.125      9.88
Ca            6.165e-03
   Ca+2            6.159e-03   1.923e-03    -2.210    -2.716    -0.506    -17.17
   CaCO3           5.690e-06   5.989e-06    -5.245    -5.223     0.022    -14.60
   CaOH+           2.041e-09   1.515e-09    -8.690    -8.820    -0.129     (0)  
   CaHCO3+         1.858e-09   1.394e-09    -8.731    -8.856    -0.125      9.88
Cl            2.000e-01
   Cl-             2.000e-01   1.415e-01    -0.699    -0.849    -0.150     18.48
   HCl             8.199e-09   1.020e-08    -8.086    -7.991     0.095     20.36
F             1.885e-04
   F-              1.637e-04   1.143e-04    -3.786    -3.942    -0.156     -0.90
   MgF+            1.607e-05   1.160e-05    -4.794    -4.936    -0.142    -10.34
   NaF             8.602e-06   9.054e-06    -5.065    -5.043     0.022      7.26
   HF              3.408e-08   3.587e-08    -7.468    -7.445     0.022     12.50
   HF2-            2.120e-11   1.574e-11   -10.674   -10.803    -0.129     22.48
H(0)          1.582e-11
   H2              7.908e-12   8.345e-12   -11.102   -11.079     0.023     14.99
K             3.190e-03
   K+              3.182e-03   2.239e-03    -2.497    -2.650    -0.153      9.36
   KHCO3           7.856e-06   8.269e-06    -5.105    -5.083     0.022     21.42
Mg            4.811e-03
   Mg+2            4.584e-03   1.535e-03    -2.339    -2.814    -0.475    -20.88
   MgHCO3+         2.091e-04   1.485e-04    -3.680    -3.828    -0.149      5.72
   MgF+            1.607e-05   1.160e-05    -4.794    -4.936    -0.142    -10.34
   MgCO3           2.580e-06   2.716e-06    -5.588    -5.566     0.022    -17.09
   MgOH+           3.486e-08   2.645e-08    -7.458    -7.578    -0.120     (0)  
Na            1.858e-01
   Na+             1.853e-01   1.376e-01    -0.732    -0.861    -0.129     -0.90
   NaHCO3          5.206e-04   5.625e-04    -3.283    -3.250     0.034     17.66
   NaF             8.602e-06   9.054e-06    -5.065    -5.043     0.022      7.26
O(0)          0.000e+00
   O2              0.000e+00   0.000e+00   -70.234   -70.212     0.022     30.40
Sr            5.749e-04
   Sr+2            5.454e-04   1.712e-04    -3.263    -3.767    -0.503    -16.99
   SrHCO3+         2.927e-05   2.165e-05    -4.534    -4.665    -0.131     (0)  
   SrCO3           1.924e-07   2.026e-07    -6.716    -6.693     0.022    -14.13
   SrOH+           5.693e-11   4.166e-11   -10.245   -10.380    -0.136     (0)  

------------------------------Saturation indices-------------------------------

  Phase               SI** log IAP   log K(298 K,   1 atm)

  Aragonite        -0.11     -8.45   -8.34  CaCO3
  Calcite           0.00     -8.45   -8.45  CaCO3
  CH4(g)           -6.92     -9.72   -2.80  CH4
  CO2(g)           -0.94     -2.41   -1.47  CO2
  Dolomite          0.09    -16.99  -17.08  CaMg(CO3)2
  Fluorite          0.00    -10.60  -10.60  CaF2
  H2(g)            -7.98    -11.08   -3.10  H2
  H2O(g)           -1.51     -0.00    1.50  H2O
  Halite           -3.28     -1.71    1.57  NaCl
  O2(g)           -67.32    -70.21   -2.89  O2
  Strontianite     -0.23     -9.50   -9.27  SrCO3
  Sylvite          -4.40     -3.50    0.90  KCl

**For a gas, SI = log10(fugacity). Fugacity = pressure * phi / 1 atm.
  For ideal gases, phi = 1.

------------------
End of simulation.
------------------

------------------------------------
Reading input data for simulation 9.
------------------------------------

	MIX
		2	0.00000001
	USE pure_phases 2
	USE exchange 2
	END
-----------------------------------------
Beginning of batch-reaction calculations.
-----------------------------------------

Reaction step 1.

Using mix 1.	
Using exchange 2.	Exchange assemblage after simulation 1.
Using pure phase assemblage 2.	

Mixture 1.	

	  1.000e-08 Solution 2	                                                       

-------------------------------Phase assemblage--------------------------------

                                                      Moles in assemblage
Phase               SI  log IAP  log K(T, P)   Initial       Final       Delta

Calcite           0.00    -8.45     -8.45    1.000e-01   1.000e-01  -5.678e-11
Fluorite          0.00   -10.60    -10.60    1.000e-01   1.000e-01   4.906e-11

-----------------------------Exchange composition------------------------------

X                1.065e+00 mol

	                               Equiv-    Equivalent      Log 
	Species             Moles      alents      Fraction     Gamma

	NaX               7.267e-01   7.267e-01   6.821e-01     0.000
	CaX2              9.222e-02   1.844e-01   1.731e-01     0.000
	KX                7.792e-02   7.792e-02   7.315e-02     0.000
	MgX2              3.055e-02   6.109e-02   5.735e-02     0.000
	SrX2              7.573e-03   1.515e-02   1.422e-02     0.000
	HX                1.103e-05   1.103e-05   1.035e-05     0.000

-----------------------------Solution composition------------------------------

	Elements           Molality       Moles

	C                 1.568e-02   1.568e-10
	Ca                6.164e-03   6.165e-11
	Cl                2.000e-01   2.000e-09
	F                 1.885e-04   1.885e-12
	K                 3.189e-03   3.190e-11
	Mg                4.810e-03   4.811e-11
	Na                1.858e-01   1.858e-09
	Sr                5.747e-04   5.748e-12

----------------------------Description of solution----------------------------

                                       pH  =   6.680      Charge balance
                                       pe  =  12.751      Adjusted to redox equilibrium
      Specific Conductance (µS/cm,  25°C)  = 20806
                          Density (g/cm³)  =   1.00601
                               Volume (L)  =   0.00000
                        Viscosity (mPa s)  =   0.91056
                        Activity of water  =   0.993
                 Ionic strength (mol/kgw)  =   2.226e-01
                       Mass of water (kg)  =   1.000e-08
                 Total alkalinity (eq/kg)  =   1.192e-02
                       Total CO2 (mol/kg)  =   1.568e-02
                         Temperature (°C)  =  25.00
                  Electrical balance (eq)  =   1.127e-18
 Percent error, 100*(Cat-|An|)/(Cat+|An|)  =   0.00
                               Iterations  =  38
                                  Total H  = 1.110319e-06
                                  Total O  = 5.555325e-07

----------------------------Distribution of species----------------------------

                                               Log       Log       Log    mole V
   Species          Molality    Activity  Molality  Activity     Gamma   cm³/mol

   H+              2.632e-07   2.089e-07    -6.580    -6.680    -0.100      0.00
   OH-             6.891e-08   4.812e-08    -7.162    -7.318    -0.156     -3.45
   H2O             5.551e+01   9.929e-01     1.744    -0.003     0.000     18.07
C(-4)         0.000e+00
   CH4             0.000e+00   0.000e+00  -133.481  -133.458     0.022     35.46
C(4)          1.568e-02
   HCO3-           1.112e-02   8.258e-03    -1.954    -2.083    -0.129     26.06
   CO2             3.776e-03   3.906e-03    -2.423    -2.408     0.015     34.79
   NaHCO3          5.198e-04   5.617e-04    -3.284    -3.251     0.034     17.66
   MgHCO3+         2.088e-04   1.483e-04    -3.680    -3.829    -0.149      5.72
   SrHCO3+         2.923e-05   2.162e-05    -4.534    -4.665    -0.131     (0)  
   KHCO3           7.845e-06   8.257e-06    -5.105    -5.083     0.022     21.42
   CO3-2           6.196e-06   1.854e-06    -5.208    -5.732    -0.524     -2.48
   CaCO3           5.690e-06   5.989e-06    -5.245    -5.223     0.022    -14.60
   MgCO3           2.580e-06   2.716e-06    -5.588    -5.566     0.022    -17.09
   (CO2)2          2.397e-07   2.480e-07    -6.620    -6.606     0.015     68.75
   SrCO3           1.924e-07   2.026e-07    -6.716    -6.693     0.022    -14.13
   CaHCO3+         1.855e-09   1.392e-09    -8.732    -8.856    -0.125      9.88
Ca            6.164e-03
   Ca+2            6.159e-03   1.923e-03    -2.211    -2.716    -0.506    -17.17
   CaCO3           5.690e-06   5.989e-06    -5.245    -5.223     0.022    -14.60
   CaOH+           2.044e-09   1.517e-09    -8.690    -8.819    -0.129     (0)  
   CaHCO3+         1.855e-09   1.392e-09    -8.732    -8.856    -0.125      9.88
Cl            2.000e-01
   Cl-             2.000e-01   1.415e-01    -0.699    -0.849    -0.150     18.48
   HCl             8.187e-09   1.018e-08    -8.087    -7.992     0.095     20.36
F             1.885e-04
   F-              1.638e-04   1.143e-04    -3.786    -3.942    -0.156     -0.90
   MgF+            1.607e-05   1.159e-05    -4.794    -4.936    -0.142    -10.34
   NaF             8.602e-06   9.054e-06    -5.065    -5.043     0.022      7.26
   HF              3.403e-08   3.582e-08    -7.468    -7.446     0.022     12.50
   HF2-            2.117e-11   1.571e-11   -10.674   -10.804    -0.129     22.48
H(0)          0.000e+00
   H2              0.000e+00   0.000e+00   -42.035   -42.012     0.023     14.99
K             3.189e-03
   K+              3.181e-03   2.239e-03    -2.497    -2.650    -0.153      9.36
   KHCO3           7.845e-06   8.257e-06    -5.105    -5.083     0.022     21.42
Mg            4.810e-03
   Mg+2            4.583e-03   1.535e-03    -2.339    -2.814    -0.475    -20.88
   MgHCO3+         2.088e-04   1.483e-04    -3.680    -3.829    -0.149      5.72
   MgF+            1.607e-05   1.159e-05    -4.794    -4.936    -0.142    -10.34
   MgCO3           2.580e-06   2.716e-06    -5.588    -5.566     0.022    -17.09
   MgOH+           3.491e-08   2.649e-08    -7.457    -7.577    -0.120     (0)  
Na            1.858e-01
   Na+             1.853e-01   1.376e-01    -0.732    -0.861    -0.129     -0.90
   NaHCO3          5.198e-04   5.617e-04    -3.284    -3.251     0.034     17.66
   NaF             8.602e-06   9.054e-06    -5.065    -5.043     0.022      7.26
O(0)          8.577e-09
   O2              4.288e-09   4.514e-09    -8.368    -8.345     0.022     30.40
Sr            5.747e-04
   Sr+2            5.453e-04   1.711e-04    -3.263    -3.767    -0.503    -16.99
   SrHCO3+         2.923e-05   2.162e-05    -4.534    -4.665    -0.131     (0)  
   SrCO3           1.924e-07   2.026e-07    -6.716    -6.693     0.022    -14.13
   SrOH+           5.701e-11   4.172e-11   -10.244   -10.380    -0.136     (0)  

------------------------------Saturation indices-------------------------------

  Phase               SI** log IAP   log K(298 K,   1 atm)

  Aragonite        -0.11     -8.45   -8.34  CaCO3
  Calcite           0.00     -8.45   -8.45  CaCO3
  CH4(g)         -130.66   -133.46   -2.80  CH4
  CO2(g)           -0.94     -2.41   -1.47  CO2
  Dolomite          0.09    -16.99  -17.08  CaMg(CO3)2
  Fluorite          0.00    -10.60  -10.60  CaF2
  H2(g)           -38.91    -42.01   -3.10  H2
  H2O(g)           -1.51     -0.00    1.50  H2O
  Halite           -3.28     -1.71    1.57  NaCl
  O2(g)            -5.45     -8.35   -2.89  O2
  Strontianite     -0.23     -9.50   -9.27  SrCO3
  Sylvite          -4.40     -3.50    0.90  KCl

**For a gas, SI = log10(fugacity). Fugacity = pressure * phi / 1 atm.
  For ideal gases, phi = 1.

------------------
End of simulation.
------------------

-------------------------------------
Reading input data for simulation 10.
-------------------------------------

