WARNING: Database file from DATABASE keyword is used; command line argument ignored.
   Input file: kin_time
  Output file: kin_time.out
Database file: ../database/phreeqc.dat

------------------
Reading data base.
------------------

	SOLUTION_MASTER_SPECIES
	SOLUTION_SPECIES
	PHASES
	GAS_BINARY_PARAMETERS
	EXCHANGE_MASTER_SPECIES
	EXCHANGE_SPECIES
	SURFACE_MASTER_SPECIES
	SURFACE_SPECIES
	MEAN_GAMMAS
	RATES
	END
------------------------------------
Reading input data for simulation 1.
------------------------------------

	DATABASE ../database/phreeqc.dat
	SELECTED_OUTPUT 101
	    file                 kin_time_101.sel
	USER_PUNCH 101
	    headings Mu SC
	    start
	10 PUNCH STR_F$(MU, 20, 12)
	20 PUNCH STR_F$(SC, 20, 10)
	    end
	SOLUTION 10 Test solution
	    temp      25
	    pH        7
	    pe        4
	    redox     pe
	    units     mmol/kgw
	    density   1
	    water    1 # kg
	    Na		1000
	    Cl		1000
	    C		1
	    P		1
	    S(6)        1
	    Ca		1  charge
	END
-------------------------------------------
Beginning of initial solution calculations.
-------------------------------------------

Initial solution 10.	Test solution

-----------------------------Solution composition------------------------------

	Elements           Molality       Moles

	C                 1.000e-03   1.000e-03
	Ca                2.335e-03   2.335e-03  Charge balance
	Cl                1.000e+00   1.000e+00
	Na                1.000e+00   1.000e+00
	P                 1.000e-03   1.000e-03
	S(6)              1.000e-03   1.000e-03

----------------------------Description of solution----------------------------

                                       pH  =   7.000    
                                       pe  =   4.000    
      Specific Conductance (µS/cm,  25°C)  = 84419
                          Density (g/cm³)  =   1.03634
                               Volume (L)  =   1.02166
                        Viscosity (mPa s)  =   0.97408
                        Activity of water  =   0.966
                 Ionic strength (mol/kgw)  =   1.007e+00
                       Mass of water (kg)  =   1.000e+00
                 Total alkalinity (eq/kg)  =   1.671e-03
                       Total CO2 (mol/kg)  =   1.000e-03
                         Temperature (°C)  =  25.00
                  Electrical balance (eq)  =   5.300e-16
 Percent error, 100*(Cat-|An|)/(Cat+|An|)  =   0.00
                               Iterations  =   9
                                  Total H  = 1.110146e+02
                                  Total O  = 5.551711e+01

----------------------------Distribution of species----------------------------

                                               Log       Log       Log    mole V
   Species          Molality    Activity  Molality  Activity     Gamma   cm³/mol

   OH-             1.690e-07   9.777e-08    -6.772    -7.010    -0.238     -2.09
   H+              1.346e-07   1.000e-07    -6.871    -7.000    -0.129      0.00
   H2O             5.551e+01   9.659e-01     1.744    -0.015     0.000     18.07
C(-4)         0.000e+00
   CH4             0.000e+00   0.000e+00   -67.605   -67.504     0.101     35.46
C(4)          1.000e-03
   HCO3-           7.665e-04   5.108e-04    -3.116    -3.292    -0.176     29.26
   NaHCO3          1.300e-04   1.846e-04    -3.886    -3.734     0.152     17.66
   CO2             1.020e-04   1.189e-04    -3.991    -3.925     0.066     34.79
   CO3-2           1.306e-06   2.395e-07    -5.884    -6.621    -0.736      0.29
   CaCO3           1.817e-07   2.291e-07    -6.741    -6.640     0.101    -14.60
   (CO2)2          1.972e-10   2.298e-10    -9.705    -9.639     0.066     68.75
   CaHCO3+         3.788e-11   2.550e-11   -10.422   -10.593    -0.172      9.98
Ca            2.335e-03
   Ca+2            2.303e-03   5.694e-04    -2.638    -3.245    -0.607    -16.47
   CaHPO4          2.279e-05   2.874e-05    -4.642    -4.542     0.101     (0)  
   CaSO4           4.702e-06   5.213e-06    -5.328    -5.283     0.045      7.22
   CaH2PO4+        3.300e-06   2.160e-06    -5.481    -5.666    -0.184     (0)  
   CaPO4-          1.039e-06   6.799e-07    -5.983    -6.168    -0.184     (0)  
   CaCO3           1.817e-07   2.291e-07    -6.741    -6.640     0.101    -14.60
   CaOH+           1.153e-09   9.128e-10    -8.938    -9.040    -0.101     (0)  
   CaHCO3+         3.788e-11   2.550e-11   -10.422   -10.593    -0.172      9.98
   CaHSO4+         5.517e-12   4.369e-12   -11.258   -11.360    -0.101     (0)  
Cl            1.000e+00
   Cl-             1.000e+00   6.083e-01    -0.000    -0.216    -0.216     18.95
   HCl             7.811e-09   2.096e-08    -8.107    -7.679     0.429     20.36
H(0)          1.110e-25
   H2              5.550e-26   7.079e-26   -25.256   -25.150     0.106     14.99
Na            1.000e+00
   Na+             9.991e-01   7.310e-01    -0.000    -0.136    -0.136     -0.30
   NaSO4-          5.681e-04   4.215e-04    -3.246    -3.375    -0.130     22.99
   NaHPO4-         2.005e-04   1.312e-04    -3.698    -3.882    -0.184    104.98
   NaHCO3          1.300e-04   1.846e-04    -3.886    -3.734     0.152     17.66
   Na2SO4          1.224e-07   1.502e-07    -6.912    -6.823     0.089     47.96
O(0)          0.000e+00
   O2              0.000e+00   0.000e+00   -42.193   -42.093     0.101     30.40
P             1.000e-03
   HPO4-2          5.458e-04   9.205e-05    -3.263    -4.036    -0.773     10.38
   H2PO4-          2.265e-04   1.483e-04    -3.645    -3.829    -0.184     35.27
   NaHPO4-         2.005e-04   1.312e-04    -3.698    -3.882    -0.184    104.98
   CaHPO4          2.279e-05   2.874e-05    -4.642    -4.542     0.101     (0)  
   CaH2PO4+        3.300e-06   2.160e-06    -5.481    -5.666    -0.184     (0)  
   CaPO4-          1.039e-06   6.799e-07    -5.983    -6.168    -0.184     (0)  
   PO4-3           4.024e-08   4.150e-10    -7.395    -9.382    -1.987    -15.98
   H3PO4           1.731e-09   2.183e-09    -8.762    -8.661     0.101     47.41
S(6)          1.000e-03
   NaSO4-          5.681e-04   4.215e-04    -3.246    -3.375    -0.130     22.99
   SO4-2           4.270e-04   6.563e-05    -3.370    -4.183    -0.813     18.16
   CaSO4           4.702e-06   5.213e-06    -5.328    -5.283     0.045      7.22
   Na2SO4          1.224e-07   1.502e-07    -6.912    -6.823     0.089     47.96
   HSO4-           8.059e-10   6.381e-10    -9.094    -9.195    -0.101     41.11
   CaHSO4+         5.517e-12   4.369e-12   -11.258   -11.360    -0.101     (0)  

------------------------------Saturation indices-------------------------------

  Phase               SI** log IAP   log K(298 K,   1 atm)

  Anhydrite        -3.11     -7.43   -4.31  CaSO4
  Aragonite        -1.53     -9.87   -8.34  CaCO3
  Calcite          -1.42     -9.87   -8.45  CaCO3
  CH4(g)          -64.70    -67.50   -2.80  CH4
  CO2(g)           -2.46     -3.92   -1.47  CO2
  Gypsum           -2.91     -7.46   -4.55  CaSO4:2H2O
  H2(g)           -22.05    -25.15   -3.10  H2
  H2O(g)           -1.52     -0.02    1.50  H2O
  Halite           -1.92     -0.35    1.57  NaCl
  Hydroxyapatite    3.08     -0.35   -3.42  Ca5(PO4)3OH
  Mirabilite       -3.90     -4.61   -0.71  Na2SO4:10H2O
  O2(g)           -39.20    -42.09   -2.89  O2
  Thenardite       -5.11     -4.46    0.65  Na2SO4

**For a gas, SI = log10(fugacity). Fugacity = pressure * phi / 1 atm.
  For ideal gases, phi = 1.

------------------
End of simulation.
------------------

------------------------------------
Reading input data for simulation 2.
------------------------------------

	SURFACE 1
	    sites DENSITY
	    Hfo_wOH    3         600       1
	    Hfo_sOH    0.06
	    donnan 1e-008
	END
------------------
End of simulation.
------------------

------------------------------------
Reading input data for simulation 3.
------------------------------------

	EQUILIBRIUM_PHASES  1
	   Calcite  0 .02 
	END
------------------
End of simulation.
------------------

------------------------------------
Reading input data for simulation 4.
------------------------------------

	SOLID_SOLUTION 1
	 FeZnCO3
	 comp1 Siderite 0.1
	 comp2 Smithsonite 0.1
	 gugg_nondimensional 4
	END
-------------------------------------
Description of Solid Solution FeZnCO3
-------------------------------------

	                              Temperature: 298.15 kelvin
	                       A0 (dimensionless): 4
	                       A1 (dimensionless): 0
	                              A0 (kJ/mol): 9.91611
	                              A1 (kJ/mol): 0

	    Critical mole-fraction of component 2: 0.5
	                     Critical temperature: 596.3 kelvin

(The critical temperature calculation assumes that the Guggenheim model
defined at 298.15 kelvin is valid at the critical temperature.)


	 Spinodal-gap mole fractions, component 2: 0.146447	0.853553
	   Miscibility-gap fractions, component 2: 0.021248	0.978752

			Eutectic Point Calculations

	     Aqueous activity ratio (comp2/comp1): 7.76247
	 Log aqueous activity ratio (comp2/comp1): 0.89
	 Aqueous activity fraction of component 2: 0.885877
	                    Log IAP (component 2): -10.0085
	                    Log IAP (component 1): -10.8985
	                               Log Sum Pi: -9.95592

Local minimum in the solidus curve corresponding to a maximum
in the minimum stoichiometric saturation curve.

	       Solid mole fraction of component 2: 0.756163
	                    Log IAP (component 2): -10.0181
	                    Log IAP (component 1): -10.5096
	                               Log Sum Pi: -9.89671
------------------
End of simulation.
------------------

------------------------------------
Reading input data for simulation 5.
------------------------------------

	KINETICS
	Organic_C
	    formula  C  1
	    m        .1
	    m0       .11
	    tol      1e-008
	    steps       8640 86400000
	END
------------------
End of simulation.
------------------

------------------------------------
Reading input data for simulation 6.
------------------------------------

	GAS_PHASE 1
	    fixed_volume
	    pressure 1
	    volume 1
	    temperature 25
	    CO2(g)    0.003
	    N2(g)     0.79
	    O2(g)     0.2
	END
------------------
End of simulation.
------------------

------------------------------------
Reading input data for simulation 7.
------------------------------------

	EXCHANGE 1
	    X 0.001
	    equilibrate 10
	END
-------------------------------------------------------
Beginning of initial exchange-composition calculations.
-------------------------------------------------------

Exchange 1.	

X                1.000e-03 mol

	                               Equiv-    Equivalent      Log 
	Species             Moles      alents      Fraction     Gamma

	NaX               9.858e-04   9.858e-04   9.858e-01    -0.136
	CaX2              7.075e-06   1.415e-05   1.415e-02    -0.607

------------------
End of simulation.
------------------

------------------------------------
Reading input data for simulation 8.
------------------------------------

	REACTION
		O2   1
		0.0001 mol
	END
------------------
End of simulation.
------------------

------------------------------------
Reading input data for simulation 9.
------------------------------------

	USE solution 10
	USE surface 1
	USE equilibrium_phases 1
	USE kinetics 1
	USE solid_solution 1
	USE gas_phase 1
	USE reaction 1
	USE exchange 1
	USER_PRINT
	start
	10 PRINT "INCREMENTAL_REACTIONS false"
	20 PRINT "  Total time     Kin_time    Kin_delta Avg_Rate(mol/s)"
	30 PRINT TOTAL_TIME, KIN_TIME, KIN_DELTA("Organic_C"),KIN_DELTA("Organic_C")/KIN_TIME 
	end
	END
-----------------------------------------
Beginning of batch-reaction calculations.
-----------------------------------------

Reaction step 1.

Using solution 10.	Test solution
Using exchange 1.	Exchange assemblage after simulation 7.
Using surface 1.	
Using pure phase assemblage 1.	
Using solid solution assemblage 1.	
Using gas phase 1.	
Using reaction 1.	
Using kinetics 1.	

Reaction 1.	

	  1.000e-04 moles of the following reaction have been added:

	                 Relative
	Reactant            moles

	O2                   1.00000

	                 Relative
	Element             moles
	O                    2.00000

Kinetics 1.	

	Time step: 8640 seconds

	Rate name       Delta Moles Total Moles   Reactant        Coefficient

	Organic_C        -7.137e-11   1.000e-01   C                         1

----------------------------------User print-----------------------------------

INCREMENTAL_REACTIONS false 
  Total time     Kin_time    Kin_delta Avg_Rate(mol/s) 
        8640         8640  -7.1373e-11  -8.2608e-15 

-----------------------------------Gas phase-----------------------------------

Total pressure:  0.90      atmospheres          (Peng-Robinson calculation)
    Gas volume:   1.00e+00 liters
  Molar volume:   2.72e+01 liters/mole
   P * Vm / RT:  0.99918  (Compressibility Factor Z) 

                                                        Moles in gas
                                            ----------------------------------
Component         log P           P    phi     Initial       Final       Delta

CO2(g)            -0.92   1.204e-01  0.996   1.227e-04   4.926e-03   4.803e-03
N2(g)             -0.11   7.797e-01  1.000   3.231e-02   3.189e-02  -4.131e-04
O2(g)            -20.84   1.439e-21  0.999   8.179e-03   5.888e-23  -8.179e-03

-------------------------------Phase assemblage--------------------------------

                                                      Moles in assemblage
Phase               SI  log IAP  log K(T, P)   Initial       Final       Delta

Calcite           0.00    -8.45     -8.45    2.000e-02   1.959e-02  -4.075e-04

--------------------------------Solid solutions--------------------------------


Solid solution                Component        Moles  Delta moles   Mole fract

FeZnCO3                                     1.66e-01
                               Siderite     6.69e-02    -3.31e-02     4.02e-01
                            Smithsonite     9.95e-02    -4.95e-04     5.98e-01

                Solid solution is in miscibility gap
                End members in pct of Smithsonite

                           0.021248 pct     6.61e-02
                           0.978752 pct     1.00e-01

------------------------------Surface composition------------------------------

Diffuse Double Layer Surface-Complexation Model

Hfo           
	 -7.777e-14  Surface + diffuse layer charge, eq
	 -2.869e-04  Surface charge, eq
	 -4.613e-02  sigma, C/m²
	 -1.952e-02  psi, V
	  7.597e-01  -F*psi/RT
	  2.138e+00  exp(-F*psi/RT)
	  6.000e+02  specific area, m²/g
	  6.000e+02  m² for   1.000e+00 g

	Water in diffuse layer: 6.000e-03 kg, 100.0% of total DDL-water.
		      viscosity: 0.00000 mPa s for DDL water.

	Total moles in diffuse layer (excluding water), Donnan calculation.
	Donnan Layer potential, psi_DL = -6.011e-04 V.
	Boltzmann factor, exp(-psi_DL * F / RT) = 1.024e+00 (= c_DL / c_free if z is +1).

	Element       	     Moles
	C             	  1.6710e-04
	Ca            	  1.7104e-05
	Cl            	  5.8324e-03
	Fe            	  2.0085e-04
	H             	  6.1746e-04
	N             	  4.9325e-06
	Na            	  6.1094e-03
	O             	  9.7858e-04
	P             	  1.2682e-06
	S             	  5.7754e-06
	Zn            	  1.7371e-06

Hfo_s         
	  5.978e-05  moles
	                                   Mole                     Log
	Species               Moles    Fraction    Molality    Molality

	Hfo_sOZn+         5.456e-05       0.913   5.461e-05      -4.263
	Hfo_sOHCa+2       5.029e-06       0.084   5.033e-06      -5.298
	Hfo_sOH2+         9.123e-08       0.002   9.132e-08      -7.039
	Hfo_sOFe+         8.070e-08       0.001   8.077e-08      -7.093
	Hfo_sOH           1.763e-08       0.000   1.764e-08      -7.753
	Hfo_sO-           7.801e-11       0.000   7.808e-11     -10.107

Hfo_w         
	  2.989e-03  moles
	                                   Mole                     Log
	Species               Moles    Fraction    Molality    Molality

	Hfo_wHCO3         1.699e-03       0.568   1.701e-03      -2.769
	Hfo_wHPO4-        6.041e-04       0.202   6.047e-04      -3.218
	Hfo_wOH2+         2.478e-04       0.083   2.480e-04      -3.606
	Hfo_wOZn+         1.551e-04       0.052   1.553e-04      -3.809
	Hfo_wH2PO4        1.274e-04       0.043   1.275e-04      -3.894
	Hfo_wCO3-         5.574e-05       0.019   5.580e-05      -4.253
	Hfo_wPO4-2        4.865e-05       0.016   4.870e-05      -4.312
	Hfo_wOH           4.787e-05       0.016   4.791e-05      -4.320
	Hfo_wOFe+         2.045e-06       0.001   2.047e-06      -5.689
	Hfo_wOCa+         7.787e-07       0.000   7.794e-07      -6.108
	Hfo_wO-           2.119e-07       0.000   2.120e-07      -6.674
	Hfo_wOFeOH        2.001e-08       0.000   2.003e-08      -7.698
	Hfo_wSO4-         1.136e-08       0.000   1.137e-08      -7.944
	Hfo_wOHSO4-2      4.225e-09       0.000   4.228e-09      -8.374

-----------------------------Exchange composition------------------------------

X                1.000e-03 mol

	                               Equiv-    Equivalent      Log 
	Species             Moles      alents      Fraction     Gamma

	NaX               9.825e-04   9.825e-04   9.825e-01    -0.135
	CaX2              8.391e-06   1.678e-05   1.678e-02    -0.607
	ZnX2              3.402e-07   6.805e-07   6.805e-04    -0.775
	FeX2              1.570e-08   3.139e-08   3.139e-05    -0.689
	NH4X              6.552e-43   6.552e-43   6.552e-40     0.000

-----------------------------Solution composition------------------------------

	Elements           Molality       Moles

	C                 2.834e-02   2.832e-02
	Ca                2.721e-03   2.719e-03
	Cl                9.951e-01   9.942e-01
	Fe                3.296e-02   3.293e-02
	N                 8.221e-04   8.213e-04
	Na                9.948e-01   9.939e-01
	P                 2.188e-04   2.186e-04
	S                 9.951e-04   9.942e-04
	Zn                2.839e-04   2.837e-04

----------------------------Description of solution----------------------------

                                       pH  =   6.906      Charge balance
                                       pe  =   8.684      Adjusted to redox equilibrium
      Specific Conductance (µS/cm,  25°C)  = 84235
                          Density (g/cm³)  =   1.04000
                               Volume (L)  =   1.02141
                        Viscosity (mPa s)  =   0.97667
                        Activity of water  =   0.965
                 Ionic strength (mol/kgw)  =   1.022e+00
                       Mass of water (kg)  =   9.991e-01
                 Total alkalinity (eq/kg)  =   3.651e-02
                       Total CO2 (mol/kg)  =   2.834e-02
                         Temperature (°C)  =  25.00
                           Pressure (atm)  =  0.90
                  Electrical balance (eq)  =   3.430e-12
 Percent error, 100*(Cat-|An|)/(Cat+|An|)  =   0.00
                               Iterations  =  15 (66 overall)
                                  Total H  = 1.110139e+02
                                  Total O  = 5.561936e+01

----------------------------Distribution of species----------------------------

                                               Log       Log       Log    mole V
   Species          Molality    Activity  Molality  Activity     Gamma   cm³/mol

   H+              1.672e-07   1.242e-07    -6.777    -6.906    -0.129      0.00
   OH-             1.362e-07   7.866e-08    -6.866    -7.104    -0.238     -2.07
   H2O             5.551e+01   9.651e-01     1.744    -0.015     0.000     18.07
C(-4)         0.000e+00
   CH4             0.000e+00   0.000e+00  -102.788  -102.686     0.102     35.46
C(4)          2.834e-02
   HCO3-           2.119e-02   1.411e-02    -1.674    -1.850    -0.177     29.31
   NaHCO3          3.548e-03   5.061e-03    -2.450    -2.296     0.154     17.66
   CO2             3.495e-03   4.082e-03    -2.457    -2.389     0.067     34.79
   ZnHCO3+         4.116e-05   3.269e-05    -4.386    -4.486    -0.100     (0)  
   CO3-2           2.917e-05   5.329e-06    -4.535    -5.273    -0.738      0.33
   ZnCO3           1.546e-05   1.956e-05    -4.811    -4.709     0.102     (0)  
   Zn(CO3)2-2      5.602e-06   2.229e-06    -5.252    -5.652    -0.400     (0)  
   CaCO3           4.734e-06   5.989e-06    -5.325    -5.223     0.102    -14.60
   FeHCO3+         4.212e-06   3.345e-06    -5.376    -5.476    -0.100     (0)  
   FeCO3           2.395e-07   3.030e-07    -6.621    -6.519     0.102     (0)  
   (CO2)2          2.320e-07   2.709e-07    -6.635    -6.567     0.067     68.75
   CaHCO3+         1.231e-09   8.277e-10    -8.910    -9.082    -0.172      9.98
Ca            2.721e-03
   Ca+2            2.704e-03   6.690e-04    -2.568    -3.175    -0.607    -16.46
   CaSO4           5.497e-06   6.104e-06    -5.260    -5.214     0.045      7.22
   CaHPO4          5.493e-06   6.950e-06    -5.260    -5.158     0.102     (0)  
   CaCO3           4.734e-06   5.989e-06    -5.325    -5.223     0.102    -14.60
   CaH2PO4+        9.922e-07   6.487e-07    -6.003    -6.188    -0.185     (0)  
   CaPO4-          2.025e-07   1.324e-07    -6.694    -6.878    -0.185     (0)  
   CaHCO3+         1.231e-09   8.277e-10    -8.910    -9.082    -0.172      9.98
   CaOH+           1.086e-09   8.629e-10    -8.964    -9.064    -0.100     (0)  
   CaHSO4+         7.998e-12   6.352e-12   -11.097   -11.197    -0.100     (0)  
Cl            9.951e-01
   Cl-             9.948e-01   6.044e-01    -0.002    -0.219    -0.216     18.95
   ZnCl+           4.984e-05   2.993e-05    -4.302    -4.524    -0.221    -17.14
   ZnCl4-2         2.319e-05   3.893e-06    -4.635    -5.410    -0.775    152.17
   ZnCl3-          2.139e-05   1.285e-05    -4.670    -4.891    -0.221      9.98
   ZnCl2           1.498e-05   1.895e-05    -4.825    -4.722     0.102    102.03
   FeCl+           2.490e-06   1.978e-06    -5.604    -5.704    -0.100     (0)  
   ZnOHCl          2.262e-06   2.862e-06    -5.645    -5.543     0.102     (0)  
   FeCl+2          1.189e-08   1.995e-09    -7.925    -8.700    -0.775     (0)  
   HCl             9.502e-09   2.586e-08    -8.022    -7.587     0.435     20.36
   FeCl2+          8.416e-09   5.386e-09    -8.075    -8.269    -0.194     (0)  
   FeCl3           2.573e-10   3.256e-10    -9.590    -9.487     0.102     (0)  
Fe(2)         1.877e-05
   Fe+2            1.159e-05   2.370e-06    -4.936    -5.625    -0.689    -20.44
   FeHCO3+         4.212e-06   3.345e-06    -5.376    -5.476    -0.100     (0)  
   FeCl+           2.490e-06   1.978e-06    -5.604    -5.704    -0.100     (0)  
   FeCO3           2.395e-07   3.030e-07    -6.621    -6.519     0.102     (0)  
   FeHPO4          1.413e-07   1.788e-07    -6.850    -6.748     0.102     (0)  
   FeH2PO4+        6.886e-08   4.502e-08    -7.162    -7.347    -0.185     (0)  
   FeSO4           2.179e-08   2.757e-08    -7.662    -7.560     0.102     30.28
   FeOH+           9.102e-09   5.826e-09    -8.041    -8.235    -0.194     (0)  
   Fe(OH)2         3.046e-13   3.854e-13   -12.516   -12.414     0.102     (0)  
   FeHSO4+         2.834e-14   2.251e-14   -13.548   -13.648    -0.100     (0)  
   Fe(OH)3-        1.739e-16   1.113e-16   -15.760   -15.954    -0.194     (0)  
   Fe(HS)2         0.000e+00   0.000e+00  -200.970  -200.868     0.102     (0)  
   Fe(HS)3-        0.000e+00   0.000e+00  -300.827  -300.927    -0.100     (0)  
Fe(3)         3.295e-02
   Fe(OH)2+        2.159e-02   1.411e-02    -1.666    -1.850    -0.185     (0)  
   Fe(OH)3         1.117e-02   1.413e-02    -1.952    -1.850     0.102     (0)  
   Fe(OH)4-        1.532e-04   1.002e-04    -3.815    -3.999    -0.185     (0)  
   FeOH+2          3.268e-05   5.484e-06    -4.486    -5.261    -0.775     (0)  
   Fe3(OH)4+5      7.579e-07   2.387e-09    -6.120    -8.622    -2.502     (0)  
   Fe2(OH)2+4      3.231e-08   8.095e-10    -7.491    -9.092    -1.601     (0)  
   FeCl+2          1.189e-08   1.995e-09    -7.925    -8.700    -0.775     (0)  
   FeCl2+          8.416e-09   5.386e-09    -8.075    -8.269    -0.194     (0)  
   FeH2PO4+2       6.102e-09   1.115e-09    -8.215    -8.953    -0.738     (0)  
   Fe+3            1.592e-09   1.093e-10    -8.798    -9.961    -1.163     (0)  
   FeHPO4+         8.708e-10   5.574e-10    -9.060    -9.254    -0.194     (0)  
   FeCl3           2.573e-10   3.256e-10    -9.590    -9.487     0.102     (0)  
   FeSO4+          1.225e-10   7.838e-11    -9.912   -10.106    -0.194     (0)  
   Fe(SO4)2-       1.412e-13   1.122e-13   -12.850   -12.950    -0.100     (0)  
   FeHSO4+2        6.551e-17   2.606e-17   -16.184   -16.584    -0.400     (0)  
H(0)          7.317e-35
   H2              3.659e-35   4.684e-35   -34.437   -34.329     0.107     14.99
N(-3)         3.174e-40
   NH4+            3.174e-40   1.659e-40   -39.498   -39.780    -0.282     18.58
   NH3             0.000e+00   0.000e+00   -42.220   -42.118     0.102     24.42
   NH4SO4-         0.000e+00   0.000e+00   -42.381   -42.611    -0.230     40.93
N(0)          8.221e-04
   N2              4.110e-04   5.200e-04    -3.386    -3.284     0.102     29.29
N(3)          1.952e-23
   NO2-            1.952e-23   1.077e-23   -22.709   -22.968    -0.258     25.89
N(5)          7.665e-21
   NO3-            7.665e-21   4.229e-21   -20.115   -20.374    -0.258     30.50
Na            9.948e-01
   Na+             9.906e-01   7.257e-01    -0.004    -0.139    -0.135     -0.30
   NaHCO3          3.548e-03   5.061e-03    -2.450    -2.296     0.154     17.66
   NaSO4-          5.611e-04   4.170e-04    -3.251    -3.380    -0.129     23.04
   NaHPO4-         4.101e-05   2.681e-05    -4.387    -4.572    -0.185    106.00
   Na2SO4          1.198e-07   1.475e-07    -6.921    -6.831     0.090     47.96
O(0)          2.913e-24
   O2              1.456e-24   1.843e-24   -23.837   -23.735     0.102     30.40
P             2.188e-04
   HPO4-2          1.129e-04   1.895e-05    -3.947    -4.722    -0.775     10.41
   H2PO4-          5.797e-05   3.790e-05    -4.237    -4.421    -0.185     35.29
   NaHPO4-         4.101e-05   2.681e-05    -4.387    -4.572    -0.185    106.00
   CaHPO4          5.493e-06   6.950e-06    -5.260    -5.158     0.102     (0)  
   CaH2PO4+        9.922e-07   6.487e-07    -6.003    -6.188    -0.185     (0)  
   CaPO4-          2.025e-07   1.324e-07    -6.694    -6.878    -0.185     (0)  
   FeHPO4          1.413e-07   1.788e-07    -6.850    -6.748     0.102     (0)  
   FeH2PO4+        6.886e-08   4.502e-08    -7.162    -7.347    -0.185     (0)  
   PO4-3           6.766e-09   6.878e-11    -8.170   -10.163    -1.993    -15.94
   FeH2PO4+2       6.102e-09   1.115e-09    -8.215    -8.953    -0.738     (0)  
   FeHPO4+         8.708e-10   5.574e-10    -9.060    -9.254    -0.194     (0)  
   H3PO4           5.477e-10   6.929e-10    -9.261    -9.159     0.102     47.41
S(-2)         0.000e+00
   HS-             0.000e+00   0.000e+00  -101.858  -102.096    -0.238     21.53
   H2S             0.000e+00   0.000e+00  -102.163  -102.061     0.102     36.27
   S-2             0.000e+00   0.000e+00  -107.333  -108.108    -0.775     (0)  
   Zn(HS)2         0.000e+00   0.000e+00  -194.090  -193.988     0.102     (0)  
   Fe(HS)2         0.000e+00   0.000e+00  -200.970  -200.868     0.102     (0)  
   (H2S)2          0.000e+00   0.000e+00  -205.502  -205.399     0.102     30.09
   Zn(HS)3-        0.000e+00   0.000e+00  -294.824  -294.924    -0.100     (0)  
   Fe(HS)3-        0.000e+00   0.000e+00  -300.827  -300.927    -0.100     (0)  
S(6)          9.951e-04
   NaSO4-          5.611e-04   4.170e-04    -3.251    -3.380    -0.129     23.04
   SO4-2           4.282e-04   6.541e-05    -3.368    -4.184    -0.816     18.20
   CaSO4           5.497e-06   6.104e-06    -5.260    -5.214     0.045      7.22
   ZnSO4           1.731e-07   2.190e-07    -6.762    -6.660     0.102      6.48
   Na2SO4          1.198e-07   1.475e-07    -6.921    -6.831     0.090     47.96
   FeSO4           2.179e-08   2.757e-08    -7.662    -7.560     0.102     30.28
   HSO4-           9.943e-10   7.897e-10    -9.002    -9.103    -0.100     41.11
   FeSO4+          1.225e-10   7.838e-11    -9.912   -10.106    -0.194     (0)  
   Zn(SO4)2-2      4.657e-11   1.112e-12   -10.332   -11.954    -1.622     45.80
   CaHSO4+         7.998e-12   6.352e-12   -11.097   -11.197    -0.100     (0)  
   Fe(SO4)2-       1.412e-13   1.122e-13   -12.850   -12.950    -0.100     (0)  
   FeHSO4+         2.834e-14   2.251e-14   -13.548   -13.648    -0.100     (0)  
   FeHSO4+2        6.551e-17   2.606e-17   -16.184   -16.584    -0.400     (0)  
   NH4SO4-         0.000e+00   0.000e+00   -42.381   -42.611    -0.230     40.93
Zn            2.839e-04
   Zn+2            1.096e-04   1.840e-05    -3.960    -4.735    -0.775    -23.96
   ZnCl+           4.984e-05   2.993e-05    -4.302    -4.524    -0.221    -17.14
   ZnHCO3+         4.116e-05   3.269e-05    -4.386    -4.486    -0.100     (0)  
   ZnCl4-2         2.319e-05   3.893e-06    -4.635    -5.410    -0.775    152.17
   ZnCl3-          2.139e-05   1.285e-05    -4.670    -4.891    -0.221      9.98
   ZnCO3           1.546e-05   1.956e-05    -4.811    -4.709     0.102     (0)  
   ZnCl2           1.498e-05   1.895e-05    -4.825    -4.722     0.102    102.03
   Zn(CO3)2-2      5.602e-06   2.229e-06    -5.252    -5.652    -0.400     (0)  
   ZnOHCl          2.262e-06   2.862e-06    -5.645    -5.543     0.102     (0)  
   ZnOH+           1.974e-07   1.568e-07    -6.705    -6.805    -0.100     (0)  
   ZnSO4           1.731e-07   2.190e-07    -6.762    -6.660     0.102      6.48
   Zn(OH)2         1.106e-08   1.399e-08    -7.956    -7.854     0.102     (0)  
   Zn(SO4)2-2      4.657e-11   1.112e-12   -10.332   -11.954    -1.622     45.80
   Zn(OH)3-        4.330e-13   3.439e-13   -12.364   -12.464    -0.100     (0)  
   Zn(OH)4-2       1.065e-18   4.236e-19   -17.973   -18.373    -0.400     (0)  
   Zn(HS)2         0.000e+00   0.000e+00  -194.090  -193.988     0.102     (0)  
   Zn(HS)3-        0.000e+00   0.000e+00  -294.824  -294.924    -0.100     (0)  

------------------------------Saturation indices-------------------------------

  Phase               SI** log IAP   log K(298 K,   1 atm)

  Anhydrite        -3.04     -7.36   -4.31  CaSO4
  Aragonite        -0.11     -8.45   -8.34  CaCO3
  Calcite           0.00     -8.45   -8.45  CaCO3
  CH4(g)          -99.88   -102.69   -2.80  CH4
  CO2(g)           -0.92     -2.39   -1.47  CO2	 Pressure   0.1 atm, phi 0.996
  Fe(OH)3(a)        5.82     10.71    4.89  Fe(OH)3
  FeS(ppt)        -96.90   -100.82   -3.92  FeS
  Goethite         11.73     10.73   -1.00  FeOOH
  Gypsum           -2.84     -7.39   -4.55  CaSO4:2H2O
  H2(g)           -31.23    -34.33   -3.10  H2
  H2O(g)           -1.52     -0.02    1.50  H2O
  H2S(g)         -101.07   -109.00   -7.94  H2S
  Halite           -1.93     -0.36    1.57  NaCl
  Hematite         25.47     21.47   -4.01  Fe2O3
  Hydroxyapatite    0.99     -2.43   -3.42  Ca5(PO4)3OH
  Mackinawite     -96.17   -100.82   -4.65  FeS
  Melanterite      -7.71     -9.92   -2.21  FeSO4:7H2O
  Mirabilite       -3.91     -4.62   -0.71  Na2SO4:10H2O
  N2(g)            -0.11     -3.28   -3.18  N2	 Pressure   0.8 atm, phi 1.000
  NH3(g)          -43.91    -42.12    1.80  NH3
  O2(g)           -20.84    -23.73   -2.89  O2	 Pressure   0.0 atm, phi 0.999
  Pyrite         -160.16   -178.64  -18.48  FeS2
  Siderite         -0.01    -10.90  -10.89  FeCO3
  Smithsonite      -0.01    -10.01  -10.00  ZnCO3
  Sphalerite      -88.31    -99.93  -11.62  ZnS
  Sulfur          -75.76    -70.88    4.88  S
  Thenardite       -5.11     -4.46    0.65  Na2SO4
  Vivianite        -1.32    -37.32  -36.00  Fe3(PO4)2:8H2O
  Zn(OH)2(e)       -2.45      9.05   11.50  Zn(OH)2

**For a gas, SI = log10(fugacity). Fugacity = pressure * phi / 1 atm.
  For ideal gases, phi = 1.

Reaction step 2.

Using solution 10.	Test solution
Using exchange 1.	Exchange assemblage after simulation 7.
Using surface 1.	
Using pure phase assemblage 1.	
Using solid solution assemblage 1.	
Using gas phase 1.	
Using reaction 1.	
Using kinetics 1.	

Reaction 1.	

	  1.000e-04 moles of the following reaction have been added:

	                 Relative
	Reactant            moles

	O2                   1.00000

	                 Relative
	Element             moles
	O                    2.00000

Kinetics 1.	

	Time step: 8.64e+07 seconds

	Rate name       Delta Moles Total Moles   Reactant        Coefficient

	Organic_C        -7.137e-07   1.000e-01   C                         1

----------------------------------User print-----------------------------------

INCREMENTAL_REACTIONS false 
  Total time     Kin_time    Kin_delta Avg_Rate(mol/s) 
    86400000     86400000  -7.1373e-07  -8.2607e-15 

-----------------------------------Gas phase-----------------------------------

Total pressure:  0.90      atmospheres          (Peng-Robinson calculation)
    Gas volume:   1.00e+00 liters
  Molar volume:   2.72e+01 liters/mole
   P * Vm / RT:  0.99918  (Compressibility Factor Z) 

                                                        Moles in gas
                                            ----------------------------------
Component         log P           P    phi     Initial       Final       Delta

CO2(g)            -0.92   1.204e-01  0.996   1.227e-04   4.925e-03   4.803e-03
N2(g)             -0.11   7.797e-01  1.000   3.231e-02   3.189e-02  -4.131e-04
O2(g)            -20.84   1.439e-21  0.999   8.179e-03   5.885e-23  -8.179e-03

-------------------------------Phase assemblage--------------------------------

                                                      Moles in assemblage
Phase               SI  log IAP  log K(T, P)   Initial       Final       Delta

Calcite           0.00    -8.45     -8.45    2.000e-02   1.959e-02  -4.076e-04

--------------------------------Solid solutions--------------------------------


Solid solution                Component        Moles  Delta moles   Mole fract

FeZnCO3                                     1.66e-01
                               Siderite     6.69e-02    -3.31e-02     4.02e-01
                            Smithsonite     9.95e-02    -4.95e-04     5.98e-01

                Solid solution is in miscibility gap
                End members in pct of Smithsonite

                           0.021248 pct     6.61e-02
                           0.978752 pct     1.00e-01

------------------------------Surface composition------------------------------

Diffuse Double Layer Surface-Complexation Model

Hfo           
	 -3.714e-14  Surface + diffuse layer charge, eq
	 -2.869e-04  Surface charge, eq
	 -4.613e-02  sigma, C/m²
	 -1.952e-02  psi, V
	  7.597e-01  -F*psi/RT
	  2.138e+00  exp(-F*psi/RT)
	  6.000e+02  specific area, m²/g
	  6.000e+02  m² for   1.000e+00 g

	Water in diffuse layer: 6.000e-03 kg, 100.0% of total DDL-water.
		      viscosity: 0.00000 mPa s for DDL water.

	Total moles in diffuse layer (excluding water), Donnan calculation.
	Donnan Layer potential, psi_DL = -6.011e-04 V.
	Boltzmann factor, exp(-psi_DL * F / RT) = 1.024e+00 (= c_DL / c_free if z is +1).

	Element       	     Moles
	C             	  1.6709e-04
	Ca            	  1.7105e-05
	Cl            	  5.8324e-03
	Fe            	  2.0083e-04
	H             	  6.1741e-04
	N             	  4.9325e-06
	Na            	  6.1094e-03
	O             	  9.7851e-04
	P             	  1.2681e-06
	S             	  5.7754e-06
	Zn            	  1.7372e-06

Hfo_s         
	  5.978e-05  moles
	                                   Mole                     Log
	Species               Moles    Fraction    Molality    Molality

	Hfo_sOZn+         5.456e-05       0.913   5.461e-05      -4.263
	Hfo_sOHCa+2       5.029e-06       0.084   5.033e-06      -5.298
	Hfo_sOH2+         9.123e-08       0.002   9.131e-08      -7.039
	Hfo_sOFe+         8.070e-08       0.001   8.077e-08      -7.093
	Hfo_sOH           1.762e-08       0.000   1.764e-08      -7.753
	Hfo_sO-           7.801e-11       0.000   7.808e-11     -10.107

Hfo_w         
	  2.989e-03  moles
	                                   Mole                     Log
	Species               Moles    Fraction    Molality    Molality

	Hfo_wHCO3         1.699e-03       0.568   1.701e-03      -2.769
	Hfo_wHPO4-        6.041e-04       0.202   6.047e-04      -3.218
	Hfo_wOH2+         2.478e-04       0.083   2.480e-04      -3.606
	Hfo_wOZn+         1.552e-04       0.052   1.553e-04      -3.809
	Hfo_wH2PO4        1.274e-04       0.043   1.275e-04      -3.894
	Hfo_wCO3-         5.574e-05       0.019   5.580e-05      -4.253
	Hfo_wPO4-2        4.865e-05       0.016   4.870e-05      -4.312
	Hfo_wOH           4.787e-05       0.016   4.791e-05      -4.320
	Hfo_wOFe+         2.045e-06       0.001   2.047e-06      -5.689
	Hfo_wOCa+         7.787e-07       0.000   7.794e-07      -6.108
	Hfo_wO-           2.119e-07       0.000   2.121e-07      -6.674
	Hfo_wOFeOH        2.002e-08       0.000   2.003e-08      -7.698
	Hfo_wSO4-         1.136e-08       0.000   1.137e-08      -7.944
	Hfo_wOHSO4-2      4.225e-09       0.000   4.229e-09      -8.374

-----------------------------Exchange composition------------------------------

X                1.000e-03 mol

	                               Equiv-    Equivalent      Log 
	Species             Moles      alents      Fraction     Gamma

	NaX               9.825e-04   9.825e-04   9.825e-01    -0.135
	CaX2              8.392e-06   1.678e-05   1.678e-02    -0.607
	ZnX2              3.403e-07   6.805e-07   6.805e-04    -0.775
	FeX2              1.570e-08   3.139e-08   3.139e-05    -0.689
	NH4X              6.555e-43   6.555e-43   6.555e-40     0.000

-----------------------------Solution composition------------------------------

	Elements           Molality       Moles

	C                 2.834e-02   2.831e-02
	Ca                2.721e-03   2.719e-03
	Cl                9.951e-01   9.942e-01
	Fe                3.296e-02   3.293e-02
	N                 8.221e-04   8.213e-04
	Na                9.948e-01   9.939e-01
	P                 2.188e-04   2.186e-04
	S                 9.951e-04   9.942e-04
	Zn                2.839e-04   2.837e-04

----------------------------Description of solution----------------------------

                                       pH  =   6.906      Charge balance
                                       pe  =   8.684      Adjusted to redox equilibrium
      Specific Conductance (µS/cm,  25°C)  = 84235
                          Density (g/cm³)  =   1.04000
                               Volume (L)  =   1.02141
                        Viscosity (mPa s)  =   0.97667
                        Activity of water  =   0.965
                 Ionic strength (mol/kgw)  =   1.022e+00
                       Mass of water (kg)  =   9.991e-01
                 Total alkalinity (eq/kg)  =   3.651e-02
                       Total CO2 (mol/kg)  =   2.834e-02
                         Temperature (°C)  =  25.00
                           Pressure (atm)  =  0.90
                  Electrical balance (eq)  =  -3.926e-12
 Percent error, 100*(Cat-|An|)/(Cat+|An|)  =  -0.00
                               Iterations  =  20 (70 overall)
                                  Total H  = 1.110139e+02
                                  Total O  = 5.561935e+01

----------------------------Distribution of species----------------------------

                                               Log       Log       Log    mole V
   Species          Molality    Activity  Molality  Activity     Gamma   cm³/mol

   H+              1.672e-07   1.242e-07    -6.777    -6.906    -0.129      0.00
   OH-             1.362e-07   7.866e-08    -6.866    -7.104    -0.238     -2.07
   H2O             5.551e+01   9.651e-01     1.744    -0.015     0.000     18.07
C(-4)         0.000e+00
   CH4             0.000e+00   0.000e+00  -102.787  -102.685     0.102     35.46
C(4)          2.834e-02
   HCO3-           2.119e-02   1.411e-02    -1.674    -1.850    -0.177     29.31
   NaHCO3          3.548e-03   5.061e-03    -2.450    -2.296     0.154     17.66
   CO2             3.495e-03   4.082e-03    -2.457    -2.389     0.067     34.79
   ZnHCO3+         4.116e-05   3.269e-05    -4.386    -4.486    -0.100     (0)  
   CO3-2           2.917e-05   5.329e-06    -4.535    -5.273    -0.738      0.33
   ZnCO3           1.546e-05   1.956e-05    -4.811    -4.709     0.102     (0)  
   Zn(CO3)2-2      5.602e-06   2.229e-06    -5.252    -5.652    -0.400     (0)  
   CaCO3           4.734e-06   5.989e-06    -5.325    -5.223     0.102    -14.60
   FeHCO3+         4.212e-06   3.345e-06    -5.376    -5.476    -0.100     (0)  
   FeCO3           2.395e-07   3.030e-07    -6.621    -6.519     0.102     (0)  
   (CO2)2          2.319e-07   2.709e-07    -6.635    -6.567     0.067     68.75
   CaHCO3+         1.231e-09   8.277e-10    -8.910    -9.082    -0.172      9.98
Ca            2.721e-03
   Ca+2            2.704e-03   6.690e-04    -2.568    -3.175    -0.607    -16.46
   CaSO4           5.497e-06   6.104e-06    -5.260    -5.214     0.045      7.22
   CaHPO4          5.493e-06   6.950e-06    -5.260    -5.158     0.102     (0)  
   CaCO3           4.734e-06   5.989e-06    -5.325    -5.223     0.102    -14.60
   CaH2PO4+        9.922e-07   6.487e-07    -6.003    -6.188    -0.185     (0)  
   CaPO4-          2.025e-07   1.324e-07    -6.694    -6.878    -0.185     (0)  
   CaHCO3+         1.231e-09   8.277e-10    -8.910    -9.082    -0.172      9.98
   CaOH+           1.087e-09   8.629e-10    -8.964    -9.064    -0.100     (0)  
   CaHSO4+         7.998e-12   6.352e-12   -11.097   -11.197    -0.100     (0)  
Cl            9.951e-01
   Cl-             9.948e-01   6.044e-01    -0.002    -0.219    -0.216     18.95
   ZnCl+           4.985e-05   2.994e-05    -4.302    -4.524    -0.221    -17.14
   ZnCl4-2         2.320e-05   3.893e-06    -4.635    -5.410    -0.775    152.17
   ZnCl3-          2.140e-05   1.285e-05    -4.670    -4.891    -0.221      9.98
   ZnCl2           1.498e-05   1.895e-05    -4.825    -4.722     0.102    102.03
   FeCl+           2.490e-06   1.978e-06    -5.604    -5.704    -0.100     (0)  
   ZnOHCl          2.262e-06   2.862e-06    -5.645    -5.543     0.102     (0)  
   FeCl+2          1.189e-08   1.995e-09    -7.925    -8.700    -0.775     (0)  
   HCl             9.502e-09   2.586e-08    -8.022    -7.587     0.435     20.36
   FeCl2+          8.415e-09   5.386e-09    -8.075    -8.269    -0.194     (0)  
   FeCl3           2.573e-10   3.255e-10    -9.590    -9.487     0.102     (0)  
Fe(2)         1.877e-05
   Fe+2            1.159e-05   2.371e-06    -4.936    -5.625    -0.689    -20.44
   FeHCO3+         4.212e-06   3.345e-06    -5.376    -5.476    -0.100     (0)  
   FeCl+           2.490e-06   1.978e-06    -5.604    -5.704    -0.100     (0)  
   FeCO3           2.395e-07   3.030e-07    -6.621    -6.519     0.102     (0)  
   FeHPO4          1.413e-07   1.788e-07    -6.850    -6.748     0.102     (0)  
   FeH2PO4+        6.887e-08   4.502e-08    -7.162    -7.347    -0.185     (0)  
   FeSO4           2.179e-08   2.757e-08    -7.662    -7.560     0.102     30.28
   FeOH+           9.102e-09   5.826e-09    -8.041    -8.235    -0.194     (0)  
   Fe(OH)2         3.046e-13   3.854e-13   -12.516   -12.414     0.102     (0)  
   FeHSO4+         2.834e-14   2.251e-14   -13.548   -13.648    -0.100     (0)  
   Fe(OH)3-        1.739e-16   1.113e-16   -15.760   -15.954    -0.194     (0)  
   Fe(HS)2         0.000e+00   0.000e+00  -200.969  -200.867     0.102     (0)  
   Fe(HS)3-        0.000e+00   0.000e+00  -300.826  -300.926    -0.100     (0)  
Fe(3)         3.294e-02
   Fe(OH)2+        2.159e-02   1.411e-02    -1.666    -1.850    -0.185     (0)  
   Fe(OH)3         1.117e-02   1.413e-02    -1.952    -1.850     0.102     (0)  
   Fe(OH)4-        1.532e-04   1.002e-04    -3.815    -3.999    -0.185     (0)  
   FeOH+2          3.268e-05   5.484e-06    -4.486    -5.261    -0.775     (0)  
   Fe3(OH)4+5      7.577e-07   2.386e-09    -6.120    -8.622    -2.502     (0)  
   Fe2(OH)2+4      3.231e-08   8.094e-10    -7.491    -9.092    -1.601     (0)  
   FeCl+2          1.189e-08   1.995e-09    -7.925    -8.700    -0.775     (0)  
   FeCl2+          8.415e-09   5.386e-09    -8.075    -8.269    -0.194     (0)  
   FeH2PO4+2       6.101e-09   1.115e-09    -8.215    -8.953    -0.738     (0)  
   Fe+3            1.592e-09   1.093e-10    -8.798    -9.961    -1.163     (0)  
   FeHPO4+         8.707e-10   5.573e-10    -9.060    -9.254    -0.194     (0)  
   FeCl3           2.573e-10   3.255e-10    -9.590    -9.487     0.102     (0)  
   FeSO4+          1.225e-10   7.838e-11    -9.912   -10.106    -0.194     (0)  
   Fe(SO4)2-       1.412e-13   1.122e-13   -12.850   -12.950    -0.100     (0)  
   FeHSO4+2        6.551e-17   2.606e-17   -16.184   -16.584    -0.400     (0)  
H(0)          7.319e-35
   H2              3.660e-35   4.685e-35   -34.437   -34.329     0.107     14.99
N(-3)         3.175e-40
   NH4+            3.175e-40   1.660e-40   -39.498   -39.780    -0.282     18.58
   NH3             0.000e+00   0.000e+00   -42.220   -42.118     0.102     24.42
   NH4SO4-         0.000e+00   0.000e+00   -42.381   -42.611    -0.230     40.93
N(0)          8.221e-04
   N2              4.110e-04   5.200e-04    -3.386    -3.284     0.102     29.29
N(3)          1.951e-23
   NO2-            1.951e-23   1.077e-23   -22.710   -22.968    -0.258     25.89
N(5)          7.660e-21
   NO3-            7.660e-21   4.226e-21   -20.116   -20.374    -0.258     30.50
Na            9.948e-01
   Na+             9.906e-01   7.257e-01    -0.004    -0.139    -0.135     -0.30
   NaHCO3          3.548e-03   5.061e-03    -2.450    -2.296     0.154     17.66
   NaSO4-          5.611e-04   4.170e-04    -3.251    -3.380    -0.129     23.04
   NaHPO4-         4.101e-05   2.681e-05    -4.387    -4.572    -0.185    106.00
   Na2SO4          1.198e-07   1.475e-07    -6.921    -6.831     0.090     47.96
O(0)          2.911e-24
   O2              1.456e-24   1.842e-24   -23.837   -23.735     0.102     30.40
P             2.188e-04
   HPO4-2          1.129e-04   1.895e-05    -3.947    -4.722    -0.775     10.41
   H2PO4-          5.796e-05   3.790e-05    -4.237    -4.421    -0.185     35.29
   NaHPO4-         4.101e-05   2.681e-05    -4.387    -4.572    -0.185    106.00
   CaHPO4          5.493e-06   6.950e-06    -5.260    -5.158     0.102     (0)  
   CaH2PO4+        9.922e-07   6.487e-07    -6.003    -6.188    -0.185     (0)  
   CaPO4-          2.025e-07   1.324e-07    -6.694    -6.878    -0.185     (0)  
   FeHPO4          1.413e-07   1.788e-07    -6.850    -6.748     0.102     (0)  
   FeH2PO4+        6.887e-08   4.502e-08    -7.162    -7.347    -0.185     (0)  
   PO4-3           6.766e-09   6.878e-11    -8.170   -10.163    -1.993    -15.94
   FeH2PO4+2       6.101e-09   1.115e-09    -8.215    -8.953    -0.738     (0)  
   FeHPO4+         8.707e-10   5.573e-10    -9.060    -9.254    -0.194     (0)  
   H3PO4           5.476e-10   6.929e-10    -9.262    -9.159     0.102     47.41
S(-2)         0.000e+00
   HS-             0.000e+00   0.000e+00  -101.857  -102.096    -0.238     21.53
   H2S             0.000e+00   0.000e+00  -102.162  -102.060     0.102     36.27
   S-2             0.000e+00   0.000e+00  -107.333  -108.108    -0.775     (0)  
   Zn(HS)2         0.000e+00   0.000e+00  -194.089  -193.987     0.102     (0)  
   Fe(HS)2         0.000e+00   0.000e+00  -200.969  -200.867     0.102     (0)  
   (H2S)2          0.000e+00   0.000e+00  -205.501  -205.398     0.102     30.09
   Zn(HS)3-        0.000e+00   0.000e+00  -294.823  -294.923    -0.100     (0)  
   Fe(HS)3-        0.000e+00   0.000e+00  -300.826  -300.926    -0.100     (0)  
S(6)          9.951e-04
   NaSO4-          5.611e-04   4.170e-04    -3.251    -3.380    -0.129     23.04
   SO4-2           4.282e-04   6.541e-05    -3.368    -4.184    -0.816     18.20
   CaSO4           5.497e-06   6.104e-06    -5.260    -5.214     0.045      7.22
   ZnSO4           1.731e-07   2.190e-07    -6.762    -6.660     0.102      6.48
   Na2SO4          1.198e-07   1.475e-07    -6.921    -6.831     0.090     47.96
   FeSO4           2.179e-08   2.757e-08    -7.662    -7.560     0.102     30.28
   HSO4-           9.943e-10   7.897e-10    -9.002    -9.103    -0.100     41.11
   FeSO4+          1.225e-10   7.838e-11    -9.912   -10.106    -0.194     (0)  
   Zn(SO4)2-2      4.658e-11   1.112e-12   -10.332   -11.954    -1.622     45.80
   CaHSO4+         7.998e-12   6.352e-12   -11.097   -11.197    -0.100     (0)  
   Fe(SO4)2-       1.412e-13   1.122e-13   -12.850   -12.950    -0.100     (0)  
   FeHSO4+         2.834e-14   2.251e-14   -13.548   -13.648    -0.100     (0)  
   FeHSO4+2        6.551e-17   2.606e-17   -16.184   -16.584    -0.400     (0)  
   NH4SO4-         0.000e+00   0.000e+00   -42.381   -42.611    -0.230     40.93
Zn            2.839e-04
   Zn+2            1.096e-04   1.840e-05    -3.960    -4.735    -0.775    -23.96
   ZnCl+           4.985e-05   2.994e-05    -4.302    -4.524    -0.221    -17.14
   ZnHCO3+         4.116e-05   3.269e-05    -4.386    -4.486    -0.100     (0)  
   ZnCl4-2         2.320e-05   3.893e-06    -4.635    -5.410    -0.775    152.17
   ZnCl3-          2.140e-05   1.285e-05    -4.670    -4.891    -0.221      9.98
   ZnCO3           1.546e-05   1.956e-05    -4.811    -4.709     0.102     (0)  
   ZnCl2           1.498e-05   1.895e-05    -4.825    -4.722     0.102    102.03
   Zn(CO3)2-2      5.602e-06   2.229e-06    -5.252    -5.652    -0.400     (0)  
   ZnOHCl          2.262e-06   2.862e-06    -5.645    -5.543     0.102     (0)  
   ZnOH+           1.974e-07   1.568e-07    -6.705    -6.805    -0.100     (0)  
   ZnSO4           1.731e-07   2.190e-07    -6.762    -6.660     0.102      6.48
   Zn(OH)2         1.106e-08   1.399e-08    -7.956    -7.854     0.102     (0)  
   Zn(SO4)2-2      4.658e-11   1.112e-12   -10.332   -11.954    -1.622     45.80
   Zn(OH)3-        4.330e-13   3.439e-13   -12.364   -12.464    -0.100     (0)  
   Zn(OH)4-2       1.065e-18   4.236e-19   -17.973   -18.373    -0.400     (0)  
   Zn(HS)2         0.000e+00   0.000e+00  -194.089  -193.987     0.102     (0)  
   Zn(HS)3-        0.000e+00   0.000e+00  -294.823  -294.923    -0.100     (0)  

------------------------------Saturation indices-------------------------------

  Phase               SI** log IAP   log K(298 K,   1 atm)

  Anhydrite        -3.04     -7.36   -4.31  CaSO4
  Aragonite        -0.11     -8.45   -8.34  CaCO3
  Calcite           0.00     -8.45   -8.45  CaCO3
  CH4(g)          -99.88   -102.69   -2.80  CH4
  CO2(g)           -0.92     -2.39   -1.47  CO2	 Pressure   0.1 atm, phi 0.996
  Fe(OH)3(a)        5.82     10.71    4.89  Fe(OH)3
  FeS(ppt)        -96.90   -100.82   -3.92  FeS
  Goethite         11.73     10.73   -1.00  FeOOH
  Gypsum           -2.84     -7.39   -4.55  CaSO4:2H2O
  H2(g)           -31.23    -34.33   -3.10  H2
  H2O(g)           -1.52     -0.02    1.50  H2O
  H2S(g)         -101.07   -109.00   -7.94  H2S
  Halite           -1.93     -0.36    1.57  NaCl
  Hematite         25.47     21.47   -4.01  Fe2O3
  Hydroxyapatite    0.99     -2.43   -3.42  Ca5(PO4)3OH
  Mackinawite     -96.17   -100.82   -4.65  FeS
  Melanterite      -7.71     -9.92   -2.21  FeSO4:7H2O
  Mirabilite       -3.91     -4.62   -0.71  Na2SO4:10H2O
  N2(g)            -0.11     -3.28   -3.18  N2	 Pressure   0.8 atm, phi 1.000
  NH3(g)          -43.91    -42.12    1.80  NH3
  O2(g)           -20.84    -23.73   -2.89  O2	 Pressure   0.0 atm, phi 0.999
  Pyrite         -160.16   -178.64  -18.48  FeS2
  Siderite         -0.01    -10.90  -10.89  FeCO3
  Smithsonite      -0.01    -10.01  -10.00  ZnCO3
  Sphalerite      -88.31    -99.93  -11.62  ZnS
  Sulfur          -75.76    -70.88    4.88  S
  Thenardite       -5.11     -4.46    0.65  Na2SO4
  Vivianite        -1.32    -37.32  -36.00  Fe3(PO4)2:8H2O
  Zn(OH)2(e)       -2.45      9.05   11.50  Zn(OH)2

**For a gas, SI = log10(fugacity). Fugacity = pressure * phi / 1 atm.
  For ideal gases, phi = 1.

------------------
End of simulation.
------------------

-------------------------------------
Reading input data for simulation 10.
-------------------------------------

	INCREMENTAL_REACTIONS true
	USE solution 10
	USE surface 1
	USE equilibrium_phases 1
	USE kinetics 1
	USE solid_solution 1
	USE gas_phase 1
	USE reaction 1
	USE exchange 1
	USER_PRINT
	start
	10 PRINT "INCREMENTAL_REACTIONS true"
	20 PRINT "  Total time     Kin_time    Kin_delta Avg_Rate(mol/s)"
	30 PRINT TOTAL_TIME, KIN_TIME, KIN_DELTA("Organic_C"),KIN_DELTA("Organic_C")/KIN_TIME 
	end
	END
-----------------------------------------
Beginning of batch-reaction calculations.
-----------------------------------------

Reaction step 1.

Using solution 10.	Test solution
Using exchange 1.	Exchange assemblage after simulation 7.
Using surface 1.	
Using pure phase assemblage 1.	
Using solid solution assemblage 1.	
Using gas phase 1.	
Using reaction 1.	
Using kinetics 1.	

Reaction 1.	

	  1.000e-04 moles of the following reaction have been added:

	                 Relative
	Reactant            moles

	O2                   1.00000

	                 Relative
	Element             moles
	O                    2.00000

Kinetics 1.	

	Time step: 8640 seconds  (Incremented time: 8640 seconds)

	Rate name       Delta Moles Total Moles   Reactant        Coefficient

	Organic_C        -7.137e-11   1.000e-01   C                         1

----------------------------------User print-----------------------------------

INCREMENTAL_REACTIONS true 
  Total time     Kin_time    Kin_delta Avg_Rate(mol/s) 
        8640         8640  -7.1372e-11  -8.2607e-15 

-----------------------------------Gas phase-----------------------------------

Total pressure:  0.90      atmospheres          (Peng-Robinson calculation)
    Gas volume:   1.00e+00 liters
  Molar volume:   2.72e+01 liters/mole
   P * Vm / RT:  0.99918  (Compressibility Factor Z) 

                                                        Moles in gas
                                            ----------------------------------
Component         log P           P    phi     Initial       Final       Delta

CO2(g)            -0.92   1.204e-01  0.996   1.227e-04   4.926e-03   4.803e-03
N2(g)             -0.11   7.797e-01  1.000   3.231e-02   3.189e-02  -4.131e-04
O2(g)            -20.84   1.439e-21  0.999   8.179e-03   5.888e-23  -8.179e-03

-------------------------------Phase assemblage--------------------------------

                                                      Moles in assemblage
Phase               SI  log IAP  log K(T, P)   Initial       Final       Delta

Calcite           0.00    -8.45     -8.45    2.000e-02   1.959e-02  -4.075e-04

--------------------------------Solid solutions--------------------------------


Solid solution                Component        Moles  Delta moles   Mole fract

FeZnCO3                                     1.66e-01
                               Siderite     6.69e-02    -3.31e-02     4.02e-01
                            Smithsonite     9.95e-02    -4.95e-04     5.98e-01

                Solid solution is in miscibility gap
                End members in pct of Smithsonite

                           0.021248 pct     6.61e-02
                           0.978752 pct     1.00e-01

------------------------------Surface composition------------------------------

Diffuse Double Layer Surface-Complexation Model

Hfo           
	 -1.958e-14  Surface + diffuse layer charge, eq
	 -2.869e-04  Surface charge, eq
	 -4.613e-02  sigma, C/m²
	 -1.952e-02  psi, V
	  7.597e-01  -F*psi/RT
	  2.138e+00  exp(-F*psi/RT)
	  6.000e+02  specific area, m²/g
	  6.000e+02  m² for   1.000e+00 g

	Water in diffuse layer: 6.000e-03 kg, 100.0% of total DDL-water.
		      viscosity: 0.00000 mPa s for DDL water.

	Total moles in diffuse layer (excluding water), Donnan calculation.
	Donnan Layer potential, psi_DL = -6.011e-04 V.
	Boltzmann factor, exp(-psi_DL * F / RT) = 1.024e+00 (= c_DL / c_free if z is +1).

	Element       	     Moles
	C             	  1.6710e-04
	Ca            	  1.7104e-05
	Cl            	  5.8324e-03
	Fe            	  2.0085e-04
	H             	  6.1746e-04
	N             	  4.9325e-06
	Na            	  6.1094e-03
	O             	  9.7858e-04
	P             	  1.2682e-06
	S             	  5.7754e-06
	Zn            	  1.7371e-06

Hfo_s         
	  5.978e-05  moles
	                                   Mole                     Log
	Species               Moles    Fraction    Molality    Molality

	Hfo_sOZn+         5.456e-05       0.913   5.461e-05      -4.263
	Hfo_sOHCa+2       5.029e-06       0.084   5.033e-06      -5.298
	Hfo_sOH2+         9.123e-08       0.002   9.132e-08      -7.039
	Hfo_sOFe+         8.070e-08       0.001   8.077e-08      -7.093
	Hfo_sOH           1.763e-08       0.000   1.764e-08      -7.753
	Hfo_sO-           7.801e-11       0.000   7.808e-11     -10.107

Hfo_w         
	  2.989e-03  moles
	                                   Mole                     Log
	Species               Moles    Fraction    Molality    Molality

	Hfo_wHCO3         1.699e-03       0.568   1.701e-03      -2.769
	Hfo_wHPO4-        6.041e-04       0.202   6.047e-04      -3.218
	Hfo_wOH2+         2.478e-04       0.083   2.480e-04      -3.606
	Hfo_wOZn+         1.551e-04       0.052   1.553e-04      -3.809
	Hfo_wH2PO4        1.274e-04       0.043   1.275e-04      -3.894
	Hfo_wCO3-         5.574e-05       0.019   5.580e-05      -4.253
	Hfo_wPO4-2        4.865e-05       0.016   4.870e-05      -4.312
	Hfo_wOH           4.787e-05       0.016   4.791e-05      -4.320
	Hfo_wOFe+         2.045e-06       0.001   2.047e-06      -5.689
	Hfo_wOCa+         7.787e-07       0.000   7.794e-07      -6.108
	Hfo_wO-           2.119e-07       0.000   2.120e-07      -6.674
	Hfo_wOFeOH        2.001e-08       0.000   2.003e-08      -7.698
	Hfo_wSO4-         1.136e-08       0.000   1.137e-08      -7.944
	Hfo_wOHSO4-2      4.225e-09       0.000   4.228e-09      -8.374

-----------------------------Exchange composition------------------------------

X                1.000e-03 mol

	                               Equiv-    Equivalent      Log 
	Species             Moles      alents      Fraction     Gamma

	NaX               9.825e-04   9.825e-04   9.825e-01    -0.135
	CaX2              8.391e-06   1.678e-05   1.678e-02    -0.607
	ZnX2              3.402e-07   6.805e-07   6.805e-04    -0.775
	FeX2              1.570e-08   3.139e-08   3.139e-05    -0.689
	NH4X              6.552e-43   6.552e-43   6.552e-40     0.000

-----------------------------Solution composition------------------------------

	Elements           Molality       Moles

	C                 2.834e-02   2.832e-02
	Ca                2.721e-03   2.719e-03
	Cl                9.951e-01   9.942e-01
	Fe                3.296e-02   3.293e-02
	N                 8.221e-04   8.213e-04
	Na                9.948e-01   9.939e-01
	P                 2.188e-04   2.186e-04
	S                 9.951e-04   9.942e-04
	Zn                2.839e-04   2.837e-04

----------------------------Description of solution----------------------------

                                       pH  =   6.906      Charge balance
                                       pe  =   8.684      Adjusted to redox equilibrium
      Specific Conductance (µS/cm,  25°C)  = 84235
                          Density (g/cm³)  =   1.04000
                               Volume (L)  =   1.02141
                        Viscosity (mPa s)  =   0.97667
                        Activity of water  =   0.965
                 Ionic strength (mol/kgw)  =   1.022e+00
                       Mass of water (kg)  =   9.991e-01
                 Total alkalinity (eq/kg)  =   3.651e-02
                       Total CO2 (mol/kg)  =   2.834e-02
                         Temperature (°C)  =  25.00
                           Pressure (atm)  =  0.90
                  Electrical balance (eq)  =  -4.386e-12
 Percent error, 100*(Cat-|An|)/(Cat+|An|)  =  -0.00
                               Iterations  =  12 (54 overall)
                                  Total H  = 1.110139e+02
                                  Total O  = 5.561936e+01

----------------------------Distribution of species----------------------------

                                               Log       Log       Log    mole V
   Species          Molality    Activity  Molality  Activity     Gamma   cm³/mol

   H+              1.672e-07   1.242e-07    -6.777    -6.906    -0.129      0.00
   OH-             1.362e-07   7.866e-08    -6.866    -7.104    -0.238     -2.07
   H2O             5.551e+01   9.651e-01     1.744    -0.015     0.000     18.07
C(-4)         0.000e+00
   CH4             0.000e+00   0.000e+00  -102.788  -102.686     0.102     35.46
C(4)          2.834e-02
   HCO3-           2.119e-02   1.411e-02    -1.674    -1.850    -0.177     29.31
   NaHCO3          3.548e-03   5.061e-03    -2.450    -2.296     0.154     17.66
   CO2             3.495e-03   4.082e-03    -2.457    -2.389     0.067     34.79
   ZnHCO3+         4.116e-05   3.269e-05    -4.386    -4.486    -0.100     (0)  
   CO3-2           2.917e-05   5.329e-06    -4.535    -5.273    -0.738      0.33
   ZnCO3           1.546e-05   1.956e-05    -4.811    -4.709     0.102     (0)  
   Zn(CO3)2-2      5.602e-06   2.229e-06    -5.252    -5.652    -0.400     (0)  
   CaCO3           4.734e-06   5.989e-06    -5.325    -5.223     0.102    -14.60
   FeHCO3+         4.212e-06   3.345e-06    -5.376    -5.476    -0.100     (0)  
   FeCO3           2.395e-07   3.030e-07    -6.621    -6.519     0.102     (0)  
   (CO2)2          2.320e-07   2.709e-07    -6.635    -6.567     0.067     68.75
   CaHCO3+         1.231e-09   8.277e-10    -8.910    -9.082    -0.172      9.98
Ca            2.721e-03
   Ca+2            2.704e-03   6.690e-04    -2.568    -3.175    -0.607    -16.46
   CaSO4           5.497e-06   6.104e-06    -5.260    -5.214     0.045      7.22
   CaHPO4          5.493e-06   6.950e-06    -5.260    -5.158     0.102     (0)  
   CaCO3           4.734e-06   5.989e-06    -5.325    -5.223     0.102    -14.60
   CaH2PO4+        9.922e-07   6.487e-07    -6.003    -6.188    -0.185     (0)  
   CaPO4-          2.025e-07   1.324e-07    -6.694    -6.878    -0.185     (0)  
   CaHCO3+         1.231e-09   8.277e-10    -8.910    -9.082    -0.172      9.98
   CaOH+           1.086e-09   8.629e-10    -8.964    -9.064    -0.100     (0)  
   CaHSO4+         7.998e-12   6.352e-12   -11.097   -11.197    -0.100     (0)  
Cl            9.951e-01
   Cl-             9.948e-01   6.044e-01    -0.002    -0.219    -0.216     18.95
   ZnCl+           4.984e-05   2.993e-05    -4.302    -4.524    -0.221    -17.14
   ZnCl4-2         2.319e-05   3.893e-06    -4.635    -5.410    -0.775    152.17
   ZnCl3-          2.139e-05   1.285e-05    -4.670    -4.891    -0.221      9.98
   ZnCl2           1.498e-05   1.895e-05    -4.825    -4.722     0.102    102.03
   FeCl+           2.490e-06   1.978e-06    -5.604    -5.704    -0.100     (0)  
   ZnOHCl          2.262e-06   2.862e-06    -5.645    -5.543     0.102     (0)  
   FeCl+2          1.189e-08   1.995e-09    -7.925    -8.700    -0.775     (0)  
   HCl             9.502e-09   2.586e-08    -8.022    -7.587     0.435     20.36
   FeCl2+          8.416e-09   5.386e-09    -8.075    -8.269    -0.194     (0)  
   FeCl3           2.573e-10   3.256e-10    -9.590    -9.487     0.102     (0)  
Fe(2)         1.877e-05
   Fe+2            1.159e-05   2.370e-06    -4.936    -5.625    -0.689    -20.44
   FeHCO3+         4.212e-06   3.345e-06    -5.376    -5.476    -0.100     (0)  
   FeCl+           2.490e-06   1.978e-06    -5.604    -5.704    -0.100     (0)  
   FeCO3           2.395e-07   3.030e-07    -6.621    -6.519     0.102     (0)  
   FeHPO4          1.413e-07   1.788e-07    -6.850    -6.748     0.102     (0)  
   FeH2PO4+        6.886e-08   4.502e-08    -7.162    -7.347    -0.185     (0)  
   FeSO4           2.179e-08   2.757e-08    -7.662    -7.560     0.102     30.28
   FeOH+           9.102e-09   5.826e-09    -8.041    -8.235    -0.194     (0)  
   Fe(OH)2         3.046e-13   3.854e-13   -12.516   -12.414     0.102     (0)  
   FeHSO4+         2.834e-14   2.251e-14   -13.548   -13.648    -0.100     (0)  
   Fe(OH)3-        1.739e-16   1.113e-16   -15.760   -15.954    -0.194     (0)  
   Fe(HS)2         0.000e+00   0.000e+00  -200.970  -200.868     0.102     (0)  
   Fe(HS)3-        0.000e+00   0.000e+00  -300.827  -300.927    -0.100     (0)  
Fe(3)         3.295e-02
   Fe(OH)2+        2.159e-02   1.411e-02    -1.666    -1.850    -0.185     (0)  
   Fe(OH)3         1.117e-02   1.413e-02    -1.952    -1.850     0.102     (0)  
   Fe(OH)4-        1.532e-04   1.002e-04    -3.815    -3.999    -0.185     (0)  
   FeOH+2          3.268e-05   5.484e-06    -4.486    -5.261    -0.775     (0)  
   Fe3(OH)4+5      7.579e-07   2.387e-09    -6.120    -8.622    -2.502     (0)  
   Fe2(OH)2+4      3.231e-08   8.095e-10    -7.491    -9.092    -1.601     (0)  
   FeCl+2          1.189e-08   1.995e-09    -7.925    -8.700    -0.775     (0)  
   FeCl2+          8.416e-09   5.386e-09    -8.075    -8.269    -0.194     (0)  
   FeH2PO4+2       6.102e-09   1.115e-09    -8.215    -8.953    -0.738     (0)  
   Fe+3            1.592e-09   1.093e-10    -8.798    -9.961    -1.163     (0)  
   FeHPO4+         8.708e-10   5.574e-10    -9.060    -9.254    -0.194     (0)  
   FeCl3           2.573e-10   3.256e-10    -9.590    -9.487     0.102     (0)  
   FeSO4+          1.225e-10   7.838e-11    -9.912   -10.106    -0.194     (0)  
   Fe(SO4)2-       1.412e-13   1.122e-13   -12.850   -12.950    -0.100     (0)  
   FeHSO4+2        6.551e-17   2.606e-17   -16.184   -16.584    -0.400     (0)  
H(0)          7.317e-35
   H2              3.659e-35   4.684e-35   -34.437   -34.329     0.107     14.99
N(-3)         3.174e-40
   NH4+            3.174e-40   1.659e-40   -39.498   -39.780    -0.282     18.58
   NH3             0.000e+00   0.000e+00   -42.220   -42.118     0.102     24.42
   NH4SO4-         0.000e+00   0.000e+00   -42.381   -42.611    -0.230     40.93
N(0)          8.221e-04
   N2              4.110e-04   5.200e-04    -3.386    -3.284     0.102     29.29
N(3)          1.952e-23
   NO2-            1.952e-23   1.077e-23   -22.709   -22.968    -0.258     25.89
N(5)          7.665e-21
   NO3-            7.665e-21   4.229e-21   -20.115   -20.374    -0.258     30.50
Na            9.948e-01
   Na+             9.906e-01   7.257e-01    -0.004    -0.139    -0.135     -0.30
   NaHCO3          3.548e-03   5.061e-03    -2.450    -2.296     0.154     17.66
   NaSO4-          5.611e-04   4.170e-04    -3.251    -3.380    -0.129     23.04
   NaHPO4-         4.101e-05   2.681e-05    -4.387    -4.572    -0.185    106.00
   Na2SO4          1.198e-07   1.475e-07    -6.921    -6.831     0.090     47.96
O(0)          2.913e-24
   O2              1.456e-24   1.843e-24   -23.837   -23.735     0.102     30.40
P             2.188e-04
   HPO4-2          1.129e-04   1.895e-05    -3.947    -4.722    -0.775     10.41
   H2PO4-          5.797e-05   3.790e-05    -4.237    -4.421    -0.185     35.29
   NaHPO4-         4.101e-05   2.681e-05    -4.387    -4.572    -0.185    106.00
   CaHPO4          5.493e-06   6.950e-06    -5.260    -5.158     0.102     (0)  
   CaH2PO4+        9.922e-07   6.487e-07    -6.003    -6.188    -0.185     (0)  
   CaPO4-          2.025e-07   1.324e-07    -6.694    -6.878    -0.185     (0)  
   FeHPO4          1.413e-07   1.788e-07    -6.850    -6.748     0.102     (0)  
   FeH2PO4+        6.886e-08   4.502e-08    -7.162    -7.347    -0.185     (0)  
   PO4-3           6.766e-09   6.878e-11    -8.170   -10.163    -1.993    -15.94
   FeH2PO4+2       6.102e-09   1.115e-09    -8.215    -8.953    -0.738     (0)  
   FeHPO4+         8.708e-10   5.574e-10    -9.060    -9.254    -0.194     (0)  
   H3PO4           5.477e-10   6.929e-10    -9.261    -9.159     0.102     47.41
S(-2)         0.000e+00
   HS-             0.000e+00   0.000e+00  -101.858  -102.096    -0.238     21.53
   H2S             0.000e+00   0.000e+00  -102.163  -102.061     0.102     36.27
   S-2             0.000e+00   0.000e+00  -107.333  -108.108    -0.775     (0)  
   Zn(HS)2         0.000e+00   0.000e+00  -194.090  -193.988     0.102     (0)  
   Fe(HS)2         0.000e+00   0.000e+00  -200.970  -200.868     0.102     (0)  
   (H2S)2          0.000e+00   0.000e+00  -205.502  -205.399     0.102     30.09
   Zn(HS)3-        0.000e+00   0.000e+00  -294.824  -294.924    -0.100     (0)  
   Fe(HS)3-        0.000e+00   0.000e+00  -300.827  -300.927    -0.100     (0)  
S(6)          9.951e-04
   NaSO4-          5.611e-04   4.170e-04    -3.251    -3.380    -0.129     23.04
   SO4-2           4.282e-04   6.541e-05    -3.368    -4.184    -0.816     18.20
   CaSO4           5.497e-06   6.104e-06    -5.260    -5.214     0.045      7.22
   ZnSO4           1.731e-07   2.190e-07    -6.762    -6.660     0.102      6.48
   Na2SO4          1.198e-07   1.475e-07    -6.921    -6.831     0.090     47.96
   FeSO4           2.179e-08   2.757e-08    -7.662    -7.560     0.102     30.28
   HSO4-           9.943e-10   7.897e-10    -9.002    -9.103    -0.100     41.11
   FeSO4+          1.225e-10   7.838e-11    -9.912   -10.106    -0.194     (0)  
   Zn(SO4)2-2      4.657e-11   1.112e-12   -10.332   -11.954    -1.622     45.80
   CaHSO4+         7.998e-12   6.352e-12   -11.097   -11.197    -0.100     (0)  
   Fe(SO4)2-       1.412e-13   1.122e-13   -12.850   -12.950    -0.100     (0)  
   FeHSO4+         2.834e-14   2.251e-14   -13.548   -13.648    -0.100     (0)  
   FeHSO4+2        6.551e-17   2.606e-17   -16.184   -16.584    -0.400     (0)  
   NH4SO4-         0.000e+00   0.000e+00   -42.381   -42.611    -0.230     40.93
Zn            2.839e-04
   Zn+2            1.096e-04   1.840e-05    -3.960    -4.735    -0.775    -23.96
   ZnCl+           4.984e-05   2.993e-05    -4.302    -4.524    -0.221    -17.14
   ZnHCO3+         4.116e-05   3.269e-05    -4.386    -4.486    -0.100     (0)  
   ZnCl4-2         2.319e-05   3.893e-06    -4.635    -5.410    -0.775    152.17
   ZnCl3-          2.139e-05   1.285e-05    -4.670    -4.891    -0.221      9.98
   ZnCO3           1.546e-05   1.956e-05    -4.811    -4.709     0.102     (0)  
   ZnCl2           1.498e-05   1.895e-05    -4.825    -4.722     0.102    102.03
   Zn(CO3)2-2      5.602e-06   2.229e-06    -5.252    -5.652    -0.400     (0)  
   ZnOHCl          2.262e-06   2.862e-06    -5.645    -5.543     0.102     (0)  
   ZnOH+           1.974e-07   1.568e-07    -6.705    -6.805    -0.100     (0)  
   ZnSO4           1.731e-07   2.190e-07    -6.762    -6.660     0.102      6.48
   Zn(OH)2         1.106e-08   1.399e-08    -7.956    -7.854     0.102     (0)  
   Zn(SO4)2-2      4.657e-11   1.112e-12   -10.332   -11.954    -1.622     45.80
   Zn(OH)3-        4.330e-13   3.439e-13   -12.364   -12.464    -0.100     (0)  
   Zn(OH)4-2       1.065e-18   4.236e-19   -17.973   -18.373    -0.400     (0)  
   Zn(HS)2         0.000e+00   0.000e+00  -194.090  -193.988     0.102     (0)  
   Zn(HS)3-        0.000e+00   0.000e+00  -294.824  -294.924    -0.100     (0)  

------------------------------Saturation indices-------------------------------

  Phase               SI** log IAP   log K(298 K,   1 atm)

  Anhydrite        -3.04     -7.36   -4.31  CaSO4
  Aragonite        -0.11     -8.45   -8.34  CaCO3
  Calcite           0.00     -8.45   -8.45  CaCO3
  CH4(g)          -99.88   -102.69   -2.80  CH4
  CO2(g)           -0.92     -2.39   -1.47  CO2	 Pressure   0.1 atm, phi 0.996
  Fe(OH)3(a)        5.82     10.71    4.89  Fe(OH)3
  FeS(ppt)        -96.90   -100.82   -3.92  FeS
  Goethite         11.73     10.73   -1.00  FeOOH
  Gypsum           -2.84     -7.39   -4.55  CaSO4:2H2O
  H2(g)           -31.23    -34.33   -3.10  H2
  H2O(g)           -1.52     -0.02    1.50  H2O
  H2S(g)         -101.07   -109.00   -7.94  H2S
  Halite           -1.93     -0.36    1.57  NaCl
  Hematite         25.47     21.47   -4.01  Fe2O3
  Hydroxyapatite    0.99     -2.43   -3.42  Ca5(PO4)3OH
  Mackinawite     -96.17   -100.82   -4.65  FeS
  Melanterite      -7.71     -9.92   -2.21  FeSO4:7H2O
  Mirabilite       -3.91     -4.62   -0.71  Na2SO4:10H2O
  N2(g)            -0.11     -3.28   -3.18  N2	 Pressure   0.8 atm, phi 1.000
  NH3(g)          -43.91    -42.12    1.80  NH3
  O2(g)           -20.84    -23.73   -2.89  O2	 Pressure   0.0 atm, phi 0.999
  Pyrite         -160.16   -178.64  -18.48  FeS2
  Siderite         -0.01    -10.90  -10.89  FeCO3
  Smithsonite      -0.01    -10.01  -10.00  ZnCO3
  Sphalerite      -88.31    -99.93  -11.62  ZnS
  Sulfur          -75.76    -70.88    4.88  S
  Thenardite       -5.11     -4.46    0.65  Na2SO4
  Vivianite        -1.32    -37.32  -36.00  Fe3(PO4)2:8H2O
  Zn(OH)2(e)       -2.45      9.05   11.50  Zn(OH)2

**For a gas, SI = log10(fugacity). Fugacity = pressure * phi / 1 atm.
  For ideal gases, phi = 1.

Reaction step 2.

Using solution 10.	Test solution
Using exchange 1.	Exchange assemblage after simulation 7.
Using surface 1.	
Using pure phase assemblage 1.	
Using solid solution assemblage 1.	
Using gas phase 1.	
Using reaction 1.	
Using kinetics 1.	

Reaction 1.	

	  1.000e-04 moles of the following reaction have been added:

	                 Relative
	Reactant            moles

	O2                   1.00000

	                 Relative
	Element             moles
	O                    2.00000

Kinetics 1.	

	Time step: 8.64e+07 seconds  (Incremented time: 8.64086e+07 seconds)

	Rate name       Delta Moles Total Moles   Reactant        Coefficient

	Organic_C        -7.137e-07   1.000e-01   C                         1

----------------------------------User print-----------------------------------

INCREMENTAL_REACTIONS true 
  Total time     Kin_time    Kin_delta Avg_Rate(mol/s) 
    86408640     86400000  -7.1372e-07  -8.2607e-15 

-----------------------------------Gas phase-----------------------------------

Total pressure:  0.90      atmospheres          (Peng-Robinson calculation)
    Gas volume:   1.00e+00 liters
  Molar volume:   2.71e+01 liters/mole
   P * Vm / RT:  0.99917  (Compressibility Factor Z) 

                                                        Moles in gas
                                            ----------------------------------
Component         log P           P    phi     Initial       Final       Delta

CO2(g)            -0.91   1.221e-01  0.996   4.926e-03   4.995e-03   6.981e-05
N2(g)             -0.11   7.797e-01  1.000   3.189e-02   3.189e-02   2.725e-08
O2(g)            -20.80   1.581e-21  0.999   5.888e-23   6.466e-23   5.780e-24

-------------------------------Phase assemblage--------------------------------

                                                      Moles in assemblage
Phase               SI  log IAP  log K(T, P)   Initial       Final       Delta

Calcite           0.00    -8.45     -8.45    1.959e-02   1.961e-02   1.666e-05

--------------------------------Solid solutions--------------------------------


Solid solution                Component        Moles  Delta moles   Mole fract

FeZnCO3                                     1.66e-01
                               Siderite     6.65e-02    -3.97e-04     4.00e-01
                            Smithsonite     9.95e-02     3.96e-06     6.00e-01

                Solid solution is in miscibility gap
                End members in pct of Smithsonite

                           0.021248 pct     6.57e-02
                           0.978752 pct     1.00e-01

------------------------------Surface composition------------------------------

Diffuse Double Layer Surface-Complexation Model

Hfo           
	 -4.893e-14  Surface + diffuse layer charge, eq
	 -2.879e-04  Surface charge, eq
	 -4.630e-02  sigma, C/m²
	 -1.958e-02  psi, V
	  7.623e-01  -F*psi/RT
	  2.143e+00  exp(-F*psi/RT)
	  6.000e+02  specific area, m²/g
	  6.000e+02  m² for   1.000e+00 g

	Water in diffuse layer: 6.000e-03 kg, 100.0% of total DDL-water.
		      viscosity: 0.00000 mPa s for DDL water.

	Total moles in diffuse layer (excluding water), Donnan calculation.
	Donnan Layer potential, psi_DL = -6.032e-04 V.
	Boltzmann factor, exp(-psi_DL * F / RT) = 1.024e+00 (= c_DL / c_free if z is +1).

	Element       	     Moles
	C             	  1.6886e-04
	Ca            	  1.7003e-05
	Cl            	  5.8320e-03
	Fe            	  2.0327e-04
	H             	  6.2442e-04
	N             	  4.9322e-06
	Na            	  6.1100e-03
	O             	  9.8908e-04
	P             	  1.2773e-06
	S             	  5.7748e-06
	Zn            	  1.7301e-06

Hfo_s         
	  5.978e-05  moles
	                                   Mole                     Log
	Species               Moles    Fraction    Molality    Molality

	Hfo_sOZn+         5.453e-05       0.912   5.458e-05      -4.263
	Hfo_sOHCa+2       5.059e-06       0.085   5.064e-06      -5.296
	Hfo_sOH2+         9.247e-08       0.002   9.255e-08      -7.034
	Hfo_sOFe+         8.065e-08       0.001   8.072e-08      -7.093
	Hfo_sOH           1.775e-08       0.000   1.776e-08      -7.750
	Hfo_sO-           7.804e-11       0.000   7.811e-11     -10.107

Hfo_w         
	  2.989e-03  moles
	                                   Mole                     Log
	Species               Moles    Fraction    Molality    Molality

	Hfo_wHCO3         1.705e-03       0.571   1.707e-03      -2.768
	Hfo_wHPO4-        6.025e-04       0.202   6.030e-04      -3.220
	Hfo_wOH2+         2.468e-04       0.083   2.470e-04      -3.607
	Hfo_wOZn+         1.524e-04       0.051   1.525e-04      -3.817
	Hfo_wH2PO4        1.279e-04       0.043   1.280e-04      -3.893
	Hfo_wCO3-         5.558e-05       0.019   5.563e-05      -4.255
	Hfo_wPO4-2        4.820e-05       0.016   4.825e-05      -4.317
	Hfo_wOH           4.737e-05       0.016   4.741e-05      -4.324
	Hfo_wOFe+         2.009e-06       0.001   2.011e-06      -5.697
	Hfo_wOCa+         7.648e-07       0.000   7.655e-07      -6.116
	Hfo_wO-           2.083e-07       0.000   2.085e-07      -6.681
	Hfo_wOFeOH        1.953e-08       0.000   1.955e-08      -7.709
	Hfo_wSO4-         1.125e-08       0.000   1.126e-08      -7.948
	Hfo_wOHSO4-2      4.159e-09       0.000   4.163e-09      -8.381

-----------------------------Exchange composition------------------------------

X                1.000e-03 mol

	                               Equiv-    Equivalent      Log 
	Species             Moles      alents      Fraction     Gamma

	NaX               9.826e-04   9.826e-04   9.826e-01    -0.135
	CaX2              8.342e-06   1.668e-05   1.668e-02    -0.607
	ZnX2              3.383e-07   6.765e-07   6.765e-04    -0.775
	FeX2              1.560e-08   3.121e-08   3.121e-05    -0.689
	NH4X              6.132e-43   6.132e-43   6.132e-40     0.000

-----------------------------Solution composition------------------------------

	Elements           Molality       Moles

	C                 2.864e-02   2.862e-02
	Ca                2.705e-03   2.702e-03
	Cl                9.951e-01   9.942e-01
	Fe                3.336e-02   3.333e-02
	N                 8.220e-04   8.213e-04
	Na                9.948e-01   9.939e-01
	P                 2.204e-04   2.202e-04
	S                 9.951e-04   9.942e-04
	Zn                2.828e-04   2.825e-04

----------------------------Description of solution----------------------------

                                       pH  =   6.904      Charge balance
                                       pe  =   8.696      Adjusted to redox equilibrium
      Specific Conductance (µS/cm,  25°C)  = 84237
                          Density (g/cm³)  =   1.04004
                               Volume (L)  =   1.02141
                        Viscosity (mPa s)  =   0.97670
                        Activity of water  =   0.965
                 Ionic strength (mol/kgw)  =   1.022e+00
                       Mass of water (kg)  =   9.991e-01
                 Total alkalinity (eq/kg)  =   3.687e-02
                       Total CO2 (mol/kg)  =   2.864e-02
                         Temperature (°C)  =  25.00
                           Pressure (atm)  =  0.90
                  Electrical balance (eq)  =  -2.433e-12
 Percent error, 100*(Cat-|An|)/(Cat+|An|)  =  -0.00
                               Iterations  =  12 (31 overall)
                                  Total H  = 1.110139e+02
                                  Total O  = 5.562053e+01

----------------------------Distribution of species----------------------------

                                               Log       Log       Log    mole V
   Species          Molality    Activity  Molality  Activity     Gamma   cm³/mol

   H+              1.679e-07   1.247e-07    -6.775    -6.904    -0.129      0.00
   OH-             1.357e-07   7.835e-08    -6.868    -7.106    -0.238     -2.07
   H2O             5.551e+01   9.651e-01     1.744    -0.015     0.000     18.07
C(-4)         0.000e+00
   CH4             0.000e+00   0.000e+00  -102.863  -102.761     0.102     35.46
C(4)          2.864e-02
   HCO3-           2.141e-02   1.425e-02    -1.669    -1.846    -0.177     29.31
   NaHCO3          3.584e-03   5.113e-03    -2.446    -2.291     0.154     17.66
   CO2             3.545e-03   4.140e-03    -2.450    -2.383     0.067     34.79
   ZnHCO3+         4.132e-05   3.282e-05    -4.384    -4.484    -0.100     (0)  
   CO3-2           2.935e-05   5.362e-06    -4.532    -5.271    -0.738      0.33
   ZnCO3           1.546e-05   1.956e-05    -4.811    -4.709     0.102     (0)  
   Zn(CO3)2-2      5.636e-06   2.243e-06    -5.249    -5.649    -0.400     (0)  
   CaCO3           4.733e-06   5.989e-06    -5.325    -5.223     0.102    -14.60
   FeHCO3+         4.228e-06   3.358e-06    -5.374    -5.474    -0.100     (0)  
   FeCO3           2.395e-07   3.030e-07    -6.621    -6.519     0.102     (0)  
   (CO2)2          2.386e-07   2.786e-07    -6.622    -6.555     0.067     68.75
   CaHCO3+         1.236e-09   8.310e-10    -8.908    -9.080    -0.172      9.98
Ca            2.705e-03
   Ca+2            2.688e-03   6.649e-04    -2.571    -3.177    -0.607    -16.46
   CaHPO4          5.494e-06   6.952e-06    -5.260    -5.158     0.102     (0)  
   CaSO4           5.464e-06   6.067e-06    -5.263    -5.217     0.045      7.22
   CaCO3           4.733e-06   5.989e-06    -5.325    -5.223     0.102    -14.60
   CaH2PO4+        9.964e-07   6.514e-07    -6.002    -6.186    -0.185     (0)  
   CaPO4-          2.018e-07   1.319e-07    -6.695    -6.880    -0.185     (0)  
   CaHCO3+         1.236e-09   8.310e-10    -8.908    -9.080    -0.172      9.98
   CaOH+           1.076e-09   8.542e-10    -8.968    -9.068    -0.100     (0)  
   CaHSO4+         7.980e-12   6.338e-12   -11.098   -11.198    -0.100     (0)  
Cl            9.951e-01
   Cl-             9.948e-01   6.044e-01    -0.002    -0.219    -0.216     18.95
   ZnCl+           4.954e-05   2.975e-05    -4.305    -4.526    -0.221    -17.14
   ZnCl4-2         2.305e-05   3.869e-06    -4.637    -5.412    -0.775    152.17
   ZnCl3-          2.126e-05   1.277e-05    -4.672    -4.894    -0.221      9.97
   ZnCl2           1.488e-05   1.883e-05    -4.827    -4.725     0.102    102.03
   FeCl+           2.475e-06   1.966e-06    -5.606    -5.706    -0.100     (0)  
   ZnOHCl          2.239e-06   2.833e-06    -5.650    -5.548     0.102     (0)  
   FeCl+2          1.214e-08   2.038e-09    -7.916    -8.691    -0.775     (0)  
   HCl             9.538e-09   2.596e-08    -8.021    -7.586     0.435     20.36
   FeCl2+          8.597e-09   5.502e-09    -8.066    -8.259    -0.194     (0)  
   FeCl3           2.628e-10   3.326e-10    -9.580    -9.478     0.102     (0)  
Fe(2)         1.870e-05
   Fe+2            1.152e-05   2.356e-06    -4.939    -5.628    -0.689    -20.44
   FeHCO3+         4.228e-06   3.358e-06    -5.374    -5.474    -0.100     (0)  
   FeCl+           2.475e-06   1.966e-06    -5.606    -5.706    -0.100     (0)  
   FeCO3           2.395e-07   3.030e-07    -6.621    -6.519     0.102     (0)  
   FeHPO4          1.414e-07   1.788e-07    -6.850    -6.748     0.102     (0)  
   FeH2PO4+        6.916e-08   4.521e-08    -7.160    -7.345    -0.185     (0)  
   FeSO4           2.166e-08   2.740e-08    -7.664    -7.562     0.102     30.28
   FeOH+           9.011e-09   5.767e-09    -8.045    -8.239    -0.194     (0)  
   Fe(OH)2         3.003e-13   3.800e-13   -12.522   -12.420     0.102     (0)  
   FeHSO4+         2.828e-14   2.246e-14   -13.549   -13.649    -0.100     (0)  
   Fe(OH)3-        1.708e-16   1.093e-16   -15.768   -15.961    -0.194     (0)  
   Fe(HS)2         0.000e+00   0.000e+00  -201.132  -201.030     0.102     (0)  
   Fe(HS)3-        0.000e+00   0.000e+00  -301.069  -301.169    -0.100     (0)  
Fe(3)         3.334e-02
   Fe(OH)2+        2.188e-02   1.430e-02    -1.660    -1.845    -0.185     (0)  
   Fe(OH)3         1.127e-02   1.426e-02    -1.948    -1.846     0.102     (0)  
   Fe(OH)4-        1.540e-04   1.007e-04    -3.812    -3.997    -0.185     (0)  
   FeOH+2          3.325e-05   5.580e-06    -4.478    -5.253    -0.775     (0)  
   Fe3(OH)4+5      7.942e-07   2.504e-09    -6.100    -8.601    -2.501     (0)  
   Fe2(OH)2+4      3.342e-08   8.380e-10    -7.476    -9.077    -1.601     (0)  
   FeCl+2          1.214e-08   2.038e-09    -7.916    -8.691    -0.775     (0)  
   FeCl2+          8.597e-09   5.502e-09    -8.066    -8.259    -0.194     (0)  
   FeH2PO4+2       6.299e-09   1.151e-09    -8.201    -8.939    -0.738     (0)  
   Fe+3            1.626e-09   1.116e-10    -8.789    -9.952    -1.163     (0)  
   FeHPO4+         8.952e-10   5.730e-10    -9.048    -9.242    -0.194     (0)  
   FeCl3           2.628e-10   3.326e-10    -9.580    -9.478     0.102     (0)  
   FeSO4+          1.251e-10   8.007e-11    -9.903   -10.097    -0.194     (0)  
   Fe(SO4)2-       1.443e-13   1.146e-13   -12.841   -12.941    -0.100     (0)  
   FeHSO4+2        6.718e-17   2.673e-17   -16.173   -16.573    -0.400     (0)  
H(0)          6.982e-35
   H2              3.491e-35   4.469e-35   -34.457   -34.350     0.107     14.99
N(-3)         2.971e-40
   NH4+            2.971e-40   1.553e-40   -39.527   -39.809    -0.282     18.58
   NH3             0.000e+00   0.000e+00   -42.251   -42.149     0.102     24.42
   NH4SO4-         0.000e+00   0.000e+00   -42.410   -42.640    -0.230     40.93
N(0)          8.220e-04
   N2              4.110e-04   5.200e-04    -3.386    -3.284     0.102     29.29
N(3)          2.086e-23
   NO2-            2.086e-23   1.151e-23   -22.681   -22.939    -0.258     25.89
N(5)          8.583e-21
   NO3-            8.583e-21   4.736e-21   -20.066   -20.325    -0.258     30.50
Na            9.948e-01
   Na+             9.906e-01   7.257e-01    -0.004    -0.139    -0.135     -0.30
   NaHCO3          3.584e-03   5.113e-03    -2.446    -2.291     0.154     17.66
   NaSO4-          5.611e-04   4.170e-04    -3.251    -3.380    -0.129     23.04
   NaHPO4-         4.127e-05   2.698e-05    -4.384    -4.569    -0.185    106.02
   Na2SO4          1.198e-07   1.475e-07    -6.921    -6.831     0.090     47.96
O(0)          3.199e-24
   O2              1.599e-24   2.024e-24   -23.796   -23.694     0.102     30.40
P             2.204e-04
   HPO4-2          1.136e-04   1.907e-05    -3.944    -4.720    -0.775     10.41
   H2PO4-          5.857e-05   3.829e-05    -4.232    -4.417    -0.185     35.29
   NaHPO4-         4.127e-05   2.698e-05    -4.384    -4.569    -0.185    106.02
   CaHPO4          5.494e-06   6.952e-06    -5.260    -5.158     0.102     (0)  
   CaH2PO4+        9.964e-07   6.514e-07    -6.002    -6.186    -0.185     (0)  
   CaPO4-          2.018e-07   1.319e-07    -6.695    -6.880    -0.185     (0)  
   FeHPO4          1.414e-07   1.788e-07    -6.850    -6.748     0.102     (0)  
   FeH2PO4+        6.916e-08   4.521e-08    -7.160    -7.345    -0.185     (0)  
   PO4-3           6.784e-09   6.895e-11    -8.169   -10.161    -1.993    -15.94
   FeH2PO4+2       6.299e-09   1.151e-09    -8.201    -8.939    -0.738     (0)  
   FeHPO4+         8.952e-10   5.730e-10    -9.048    -9.242    -0.194     (0)  
   H3PO4           5.555e-10   7.029e-10    -9.255    -9.153     0.102     47.41
S(-2)         0.000e+00
   HS-             0.000e+00   0.000e+00  -101.937  -102.176    -0.238     21.53
   H2S             0.000e+00   0.000e+00  -102.241  -102.138     0.102     36.27
   S-2             0.000e+00   0.000e+00  -107.415  -108.190    -0.775     (0)  
   Zn(HS)2         0.000e+00   0.000e+00  -194.252  -194.150     0.102     (0)  
   Fe(HS)2         0.000e+00   0.000e+00  -201.132  -201.030     0.102     (0)  
   (H2S)2          0.000e+00   0.000e+00  -205.657  -205.555     0.102     30.09
   Zn(HS)3-        0.000e+00   0.000e+00  -295.066  -295.166    -0.100     (0)  
   Fe(HS)3-        0.000e+00   0.000e+00  -301.069  -301.169    -0.100     (0)  
S(6)          9.951e-04
   NaSO4-          5.611e-04   4.170e-04    -3.251    -3.380    -0.129     23.04
   SO4-2           4.283e-04   6.541e-05    -3.368    -4.184    -0.816     18.20
   CaSO4           5.464e-06   6.067e-06    -5.263    -5.217     0.045      7.22
   ZnSO4           1.720e-07   2.177e-07    -6.764    -6.662     0.102      6.48
   Na2SO4          1.198e-07   1.475e-07    -6.921    -6.831     0.090     47.96
   FeSO4           2.166e-08   2.740e-08    -7.664    -7.562     0.102     30.28
   HSO4-           9.983e-10   7.929e-10    -9.001    -9.101    -0.100     41.11
   FeSO4+          1.251e-10   8.007e-11    -9.903   -10.097    -0.194     (0)  
   Zn(SO4)2-2      4.631e-11   1.105e-12   -10.334   -11.957    -1.622     45.80
   CaHSO4+         7.980e-12   6.338e-12   -11.098   -11.198    -0.100     (0)  
   Fe(SO4)2-       1.443e-13   1.146e-13   -12.841   -12.941    -0.100     (0)  
   FeHSO4+         2.828e-14   2.246e-14   -13.549   -13.649    -0.100     (0)  
   FeHSO4+2        6.718e-17   2.673e-17   -16.173   -16.573    -0.400     (0)  
   NH4SO4-         0.000e+00   0.000e+00   -42.410   -42.640    -0.230     40.93
Zn            2.828e-04
   Zn+2            1.090e-04   1.829e-05    -3.963    -4.738    -0.775    -23.96
   ZnCl+           4.954e-05   2.975e-05    -4.305    -4.526    -0.221    -17.14
   ZnHCO3+         4.132e-05   3.282e-05    -4.384    -4.484    -0.100     (0)  
   ZnCl4-2         2.305e-05   3.869e-06    -4.637    -5.412    -0.775    152.17
   ZnCl3-          2.126e-05   1.277e-05    -4.672    -4.894    -0.221      9.97
   ZnCO3           1.546e-05   1.956e-05    -4.811    -4.709     0.102     (0)  
   ZnCl2           1.488e-05   1.883e-05    -4.827    -4.725     0.102    102.03
   Zn(CO3)2-2      5.636e-06   2.243e-06    -5.249    -5.649    -0.400     (0)  
   ZnOHCl          2.239e-06   2.833e-06    -5.650    -5.548     0.102     (0)  
   ZnOH+           1.954e-07   1.552e-07    -6.709    -6.809    -0.100     (0)  
   ZnSO4           1.720e-07   2.177e-07    -6.764    -6.662     0.102      6.48
   Zn(OH)2         1.090e-08   1.380e-08    -7.962    -7.860     0.102     (0)  
   Zn(SO4)2-2      4.631e-11   1.105e-12   -10.334   -11.957    -1.622     45.80
   Zn(OH)3-        4.252e-13   3.377e-13   -12.371   -12.471    -0.100     (0)  
   Zn(OH)4-2       1.041e-18   4.143e-19   -17.982   -18.383    -0.400     (0)  
   Zn(HS)2         0.000e+00   0.000e+00  -194.252  -194.150     0.102     (0)  
   Zn(HS)3-        0.000e+00   0.000e+00  -295.066  -295.166    -0.100     (0)  

------------------------------Saturation indices-------------------------------

  Phase               SI** log IAP   log K(298 K,   1 atm)

  Anhydrite        -3.05     -7.36   -4.31  CaSO4
  Aragonite        -0.11     -8.45   -8.34  CaCO3
  Calcite           0.00     -8.45   -8.45  CaCO3
  CH4(g)          -99.96   -102.76   -2.80  CH4
  CO2(g)           -0.91     -2.38   -1.47  CO2	 Pressure   0.1 atm, phi 0.996
  Fe(OH)3(a)        5.82     10.71    4.89  Fe(OH)3
  FeS(ppt)        -96.98   -100.90   -3.92  FeS
  Goethite         11.73     10.73   -1.00  FeOOH
  Gypsum           -2.84     -7.39   -4.55  CaSO4:2H2O
  H2(g)           -31.25    -34.35   -3.10  H2
  H2O(g)           -1.52     -0.02    1.50  H2O
  H2S(g)         -101.14   -109.08   -7.94  H2S
  Halite           -1.93     -0.36    1.57  NaCl
  Hematite         25.48     21.47   -4.01  Fe2O3
  Hydroxyapatite    0.98     -2.44   -3.42  Ca5(PO4)3OH
  Mackinawite     -96.25   -100.90   -4.65  FeS
  Melanterite      -7.71     -9.92   -2.21  FeSO4:7H2O
  Mirabilite       -3.91     -4.62   -0.71  Na2SO4:10H2O
  N2(g)            -0.11     -3.28   -3.18  N2	 Pressure   0.8 atm, phi 1.000
  NH3(g)          -43.95    -42.15    1.80  NH3
  O2(g)           -20.80    -23.69   -2.89  O2	 Pressure   0.0 atm, phi 0.999
  Pyrite         -160.30   -178.78  -18.48  FeS2
  Siderite         -0.01    -10.90  -10.89  FeCO3
  Smithsonite      -0.01    -10.01  -10.00  ZnCO3
  Sphalerite      -88.39   -100.01  -11.62  ZnS
  Sulfur          -75.82    -70.94    4.88  S
  Thenardite       -5.11     -4.46    0.65  Na2SO4
  Vivianite        -1.33    -37.33  -36.00  Fe3(PO4)2:8H2O
  Zn(OH)2(e)       -2.46      9.04   11.50  Zn(OH)2

**For a gas, SI = log10(fugacity). Fugacity = pressure * phi / 1 atm.
  For ideal gases, phi = 1.

------------------
End of simulation.
------------------

-------------------------------------
Reading input data for simulation 11.
-------------------------------------

