WARNING: Database file from DATABASE keyword is used; command line argument ignored.
   Input file: krest
  Output file: krest.out
Database file: ../database/phreeqc.dat

------------------
Reading data base.
------------------

	SOLUTION_MASTER_SPECIES
	SOLUTION_SPECIES
	PHASES
	GAS_BINARY_PARAMETERS
	EXCHANGE_MASTER_SPECIES
	EXCHANGE_SPECIES
	SURFACE_MASTER_SPECIES
	SURFACE_SPECIES
	MEAN_GAMMAS
	RATES
	END
------------------------------------
Reading input data for simulation 1.
------------------------------------

	DATABASE ../database/phreeqc.dat
	SELECTED_OUTPUT 101
	    file                 krest_101.sel
	USER_PUNCH 101
	    headings Mu SC
	    start
	10 PUNCH STR_F$(MU, 20, 12)
	20 PUNCH STR_F$(SC, 20, 10)
	    end
	SURFACE_MASTER_SPECIES
		Solid	Solid
	SURFACE_SPECIES
		Solid = Solid
		log_k 0
		Solid + [224Ra] = Solid[224Ra]
		log_k	-98.7	# log(Kd) - 100
	SOLUTION_MASTER_SPECIES
		[224Ra]	[224Ra]	0	224	224
	SOLUTION_SPECIES
		[224Ra] = [224Ra]
		log_k	0.0
	RATES
		Add_Ra
	start
	10 rate = 1 / (24*3600)   # 1/day
	20 moles = parm(1) * rate * TIME
	30 save moles
	end
		Decay_Ra
	start
	10 k = .189 / (24*3600)  # 3.66 day half life
	20 total_224Ra = TOT("[224Ra]") + MOL("Solid[224Ra]")
	30 rate = -k*total_224Ra
	40 moles = rate*TIME
	50 save moles
	end
	END
------------------
End of simulation.
------------------

------------------------------------
Reading input data for simulation 2.
------------------------------------

	SOLUTION 1-45
		pH 7
		C	1
		Ca	1	charge
	END
-------------------------------------------
Beginning of initial solution calculations.
-------------------------------------------

Initial solution 1.	

-----------------------------Solution composition------------------------------

	Elements           Molality       Moles

	C                 1.000e-03   1.000e-03
	Ca                4.115e-04   4.115e-04  Charge balance

----------------------------Description of solution----------------------------

                                       pH  =   7.000    
                                       pe  =   4.000    
      Specific Conductance (µS/cm,  25°C)  = 81
                          Density (g/cm³)  =   0.99710
                               Volume (L)  =   1.00298
                        Viscosity (mPa s)  =   0.89077
                        Activity of water  =   1.000
                 Ionic strength (mol/kgw)  =   1.234e-03
                       Mass of water (kg)  =   1.000e+00
                 Total alkalinity (eq/kg)  =   8.230e-04
                       Total CO2 (mol/kg)  =   1.000e-03
                         Temperature (°C)  =  25.00
                  Electrical balance (eq)  =   9.185e-21
 Percent error, 100*(Cat-|An|)/(Cat+|An|)  =   0.00
                               Iterations  =   8
                                  Total H  = 1.110133e+02
                                  Total O  = 5.550904e+01

----------------------------Distribution of species----------------------------

                                               Log       Log       Log    mole V
   Species          Molality    Activity  Molality  Activity     Gamma   cm³/mol

   OH-             1.053e-07   1.012e-07    -6.978    -6.995    -0.017     -4.10
   H+              1.038e-07   1.000e-07    -6.984    -7.000    -0.016      0.00
   H2O             5.551e+01   1.000e+00     1.744    -0.000     0.000     18.07
C(-4)         0.000e+00
   CH4             0.000e+00   0.000e+00   -67.360   -67.360     0.000     35.46
C(4)          1.000e-03
   HCO3-           8.217e-04   7.904e-04    -3.085    -3.102    -0.017     24.56
   CO2             1.777e-04   1.777e-04    -3.750    -3.750     0.000     34.79
   CO3-2           4.330e-07   3.707e-07    -6.364    -6.431    -0.067     -4.66
   CaCO3           2.191e-07   2.192e-07    -6.659    -6.659     0.000    -14.60
   (CO2)2          5.133e-10   5.134e-10    -9.290    -9.290     0.000     68.75
   CaHCO3+         2.535e-11   2.439e-11   -10.596   -10.613    -0.017      9.67
Ca            4.115e-04
   Ca+2            4.113e-04   3.520e-04    -3.386    -3.453    -0.068    -18.13
   CaCO3           2.191e-07   2.192e-07    -6.659    -6.659     0.000    -14.60
   CaOH+           6.077e-10   5.842e-10    -9.216    -9.233    -0.017     (0)  
   CaHCO3+         2.535e-11   2.439e-11   -10.596   -10.613    -0.017      9.67
H(0)          1.415e-25
   H2              7.077e-26   7.079e-26   -25.150   -25.150     0.000     14.99
O(0)          0.000e+00
   O2              0.000e+00   0.000e+00   -42.063   -42.063     0.000     30.40

------------------------------Saturation indices-------------------------------

  Phase               SI** log IAP   log K(298 K,   1 atm)

  Aragonite        -1.55     -9.88   -8.34  CaCO3
  Calcite          -1.44     -9.88   -8.45  CaCO3
  CH4(g)          -64.56    -67.36   -2.80  CH4
  CO2(g)           -2.28     -3.75   -1.47  CO2
  H2(g)           -22.05    -25.15   -3.10  H2
  H2O(g)           -1.50     -0.00    1.50  H2O
  O2(g)           -39.17    -42.06   -2.89  O2

**For a gas, SI = log10(fugacity). Fugacity = pressure * phi / 1 atm.
  For ideal gases, phi = 1.

------------------
End of simulation.
------------------

------------------------------------
Reading input data for simulation 3.
------------------------------------

	SOLUTION 46
		pH 7
		C	1
		Ca	1	charge
		[224Ra]	70e-8 mol/kgw
		Cl	1
	END
-------------------------------------------
Beginning of initial solution calculations.
-------------------------------------------

Initial solution 46.	

-----------------------------Solution composition------------------------------

	Elements           Molality       Moles

	C                 1.000e-03   1.000e-03
	Ca                9.129e-04   9.129e-04  Charge balance
	Cl                1.000e-03   1.000e-03
	[224Ra]           7.000e-07   7.000e-07

----------------------------Description of solution----------------------------

                                       pH  =   7.000    
                                       pe  =   4.000    
      Specific Conductance (µS/cm,  25°C)  = 208
                          Density (g/cm³)  =   0.99715
                               Volume (L)  =   1.00299
                        Viscosity (mPa s)  =   0.89107
                        Activity of water  =   1.000
                 Ionic strength (mol/kgw)  =   2.738e-03
                       Mass of water (kg)  =   1.000e+00
                 Total alkalinity (eq/kg)  =   8.258e-04
                       Total CO2 (mol/kg)  =   1.000e-03
                         Temperature (°C)  =  25.00
                  Electrical balance (eq)  =   7.371e-17
 Percent error, 100*(Cat-|An|)/(Cat+|An|)  =   0.00
                               Iterations  =   9
                                  Total H  = 1.110133e+02
                                  Total O  = 5.550904e+01

----------------------------Distribution of species----------------------------

                                               Log       Log       Log    mole V
   Species          Molality    Activity  Molality  Activity     Gamma   cm³/mol

   OH-             1.073e-07   1.012e-07    -6.970    -6.995    -0.025     -4.09
   H+              1.055e-07   1.000e-07    -6.977    -7.000    -0.023      0.00
   H2O             5.551e+01   1.000e+00     1.744    -0.000     0.000     18.07
C(-4)         0.000e+00
   CH4             0.000e+00   0.000e+00   -67.367   -67.366     0.000     35.46
C(4)          1.000e-03
   HCO3-           8.240e-04   7.790e-04    -3.084    -3.108    -0.024     24.60
   CO2             1.751e-04   1.752e-04    -3.757    -3.757     0.000     34.79
   CO3-2           4.575e-07   3.653e-07    -6.340    -6.437    -0.098     -4.58
   CaCO3           4.467e-07   4.470e-07    -6.350    -6.350     0.000    -14.60
   (CO2)2          4.985e-10   4.988e-10    -9.302    -9.302     0.000     68.75
   CaHCO3+         5.260e-11   4.975e-11   -10.279   -10.303    -0.024      9.69
Ca            9.129e-04
   Ca+2            9.125e-04   7.284e-04    -3.040    -3.138    -0.098    -18.07
   CaCO3           4.467e-07   4.470e-07    -6.350    -6.350     0.000    -14.60
   CaOH+           1.280e-09   1.209e-09    -8.893    -8.918    -0.025     (0)  
   CaHCO3+         5.260e-11   4.975e-11   -10.279   -10.303    -0.024      9.69
Cl            1.000e-03
   Cl-             1.000e-03   9.439e-04    -3.000    -3.025    -0.025     18.09
   HCl             3.243e-11   3.252e-11   -10.489   -10.488     0.001     20.36
H(0)          1.415e-25
   H2              7.075e-26   7.079e-26   -25.150   -25.150     0.000     14.99
O(0)          0.000e+00
   O2              0.000e+00   0.000e+00   -42.063   -42.063     0.000     30.40
[224Ra]       7.000e-07
   [224Ra]         7.000e-07   7.004e-07    -6.155    -6.155     0.000     (0)  

------------------------------Saturation indices-------------------------------

  Phase               SI** log IAP   log K(298 K,   1 atm)

  Aragonite        -1.24     -9.57   -8.34  CaCO3
  Calcite          -1.13     -9.57   -8.45  CaCO3
  CH4(g)          -64.56    -67.37   -2.80  CH4
  CO2(g)           -2.29     -3.76   -1.47  CO2
  H2(g)           -22.05    -25.15   -3.10  H2
  H2O(g)           -1.50     -0.00    1.50  H2O
  O2(g)           -39.17    -42.06   -2.89  O2

**For a gas, SI = log10(fugacity). Fugacity = pressure * phi / 1 atm.
  For ideal gases, phi = 1.

------------------
End of simulation.
------------------

------------------------------------
Reading input data for simulation 4.
------------------------------------

	KINETICS 1-45
		Add_Ra
			formula	[224Ra]
			parms	1e-8
			tol	1e-10
			m	1
		Decay_Ra
			formula	[224Ra]
			tol	1e-10
			m	1
	SURFACE 1-45
		Solid 1e100 1.0 1e100	
	END
------------------
End of simulation.
------------------

------------------------------------
Reading input data for simulation 5.
------------------------------------

	TRANSPORT
		cells			45
		shifts			10
		time_step		72000	# 1/2.4 cm/day * 2 cm * 24*3600 sec/day
		flow_direction		backward
		boundary_conditions	flux	flux
		length			.02
		disp			.005
		diffusion_coefficient	1e-9
	SELECTED_OUTPUT
WARNING: Cell-lengths were read for 1 cells. Last value is used till cell 45.
WARNING: Dispersivities were read for 1 cells. Last value is used till cell 45.
		file 	krest.sel
		reset 	false
		time
		distance
		totals	[224Ra]
	END
------------------------------------
Beginning of transport calculations.
------------------------------------

-------------------------------
Equilibrating initial solutions
-------------------------------

Using solution 0.	

-----------------------------Solution composition------------------------------

	Elements           Molality       Moles

	C                 1.000e-03   1.000e-03
	Ca                4.115e-04   4.115e-04

----------------------------Description of solution----------------------------

                                       pH  =   7.000      Charge balance
                                       pe  =   4.000      Adjusted to redox equilibrium
      Specific Conductance (µS/cm,  25°C)  = 81
                          Density (g/cm³)  =   0.99710
                               Volume (L)  =   1.00298
                        Viscosity (mPa s)  =   0.89077
                        Activity of water  =   1.000
                 Ionic strength (mol/kgw)  =   1.234e-03
                       Mass of water (kg)  =   1.000e+00
                 Total alkalinity (eq/kg)  =   8.230e-04
                       Total CO2 (mol/kg)  =   1.000e-03
                         Temperature (°C)  =  25.00
                  Electrical balance (eq)  =   9.185e-21
 Percent error, 100*(Cat-|An|)/(Cat+|An|)  =   0.00
                               Iterations  =   0
                                  Total H  = 1.110133e+02
                                  Total O  = 5.550904e+01

----------------------------Distribution of species----------------------------

                                               Log       Log       Log    mole V
   Species          Molality    Activity  Molality  Activity     Gamma   cm³/mol

   OH-             1.053e-07   1.012e-07    -6.978    -6.995    -0.017     -4.10
   H+              1.038e-07   1.000e-07    -6.984    -7.000    -0.016      0.00
   H2O             5.551e+01   1.000e+00     1.744    -0.000     0.000     18.07
C(-4)         0.000e+00
   CH4             0.000e+00   0.000e+00   -67.360   -67.360     0.000     35.46
C(4)          1.000e-03
   HCO3-           8.217e-04   7.904e-04    -3.085    -3.102    -0.017     24.56
   CO2             1.777e-04   1.777e-04    -3.750    -3.750     0.000     34.79
   CO3-2           4.330e-07   3.707e-07    -6.364    -6.431    -0.067     -4.66
   CaCO3           2.191e-07   2.192e-07    -6.659    -6.659     0.000    -14.60
   (CO2)2          5.133e-10   5.134e-10    -9.290    -9.290     0.000     68.75
   CaHCO3+         2.535e-11   2.439e-11   -10.596   -10.613    -0.017      9.67
Ca            4.115e-04
   Ca+2            4.113e-04   3.520e-04    -3.386    -3.453    -0.068    -18.13
   CaCO3           2.191e-07   2.192e-07    -6.659    -6.659     0.000    -14.60
   CaOH+           6.077e-10   5.842e-10    -9.216    -9.233    -0.017     (0)  
   CaHCO3+         2.535e-11   2.439e-11   -10.596   -10.613    -0.017      9.67
H(0)          1.415e-25
   H2              7.077e-26   7.079e-26   -25.150   -25.150     0.000     14.99
O(0)          0.000e+00
   O2              0.000e+00   0.000e+00   -42.063   -42.063     0.000     30.40

------------------------------Saturation indices-------------------------------

  Phase               SI** log IAP   log K(298 K,   1 atm)

  Aragonite        -1.55     -9.88   -8.34  CaCO3
  Calcite          -1.44     -9.88   -8.45  CaCO3
  CH4(g)          -64.56    -67.36   -2.80  CH4
  CO2(g)           -2.28     -3.75   -1.47  CO2
  H2(g)           -22.05    -25.15   -3.10  H2
  H2O(g)           -1.50     -0.00    1.50  H2O
  O2(g)           -39.17    -42.06   -2.89  O2

**For a gas, SI = log10(fugacity). Fugacity = pressure * phi / 1 atm.
  For ideal gases, phi = 1.

Using solution 1.	
Using surface 1.	
Using kinetics 1.	

Kinetics 1.	

	Time:      0 seconds
	Time step: 72000 seconds

	Rate name       Delta Moles Total Moles   Reactant        Coefficient

	Add_Ra            0.000e+00   1.000e+00   [224Ra]                   1
	Decay_Ra          0.000e+00   1.000e+00   [224Ra]                   1

------------------------------Surface composition------------------------------

Diffuse Double Layer Surface-Complexation Model

Solid         
	  0.000e+00  Surface charge, eq
	  0.000e+00  sigma, C/m²
	  0.000e+00  psi, V
	 -0.000e+00  -F*psi/RT
	  1.000e+00  exp(-F*psi/RT)
	  1.000e+00  specific area, m²/g
	 1.000e+100  m² for  1.000e+100 g


Solid         
	 1.000e+100  moles
	                                   Mole                     Log
	Species               Moles    Fraction    Molality    Molality

	Solid            1.000e+100       1.000  1.000e+100     100.000

-----------------------------Solution composition------------------------------

	Elements           Molality       Moles

	C                 1.000e-03   1.000e-03
	Ca                4.115e-04   4.115e-04

----------------------------Description of solution----------------------------

                                       pH  =   7.000      Charge balance
                                       pe  =   4.000      Adjusted to redox equilibrium
      Specific Conductance (µS/cm,  25°C)  = 81
                          Density (g/cm³)  =   0.99710
                               Volume (L)  =   1.00298
                        Viscosity (mPa s)  =   0.89077
                        Activity of water  =   1.000
                 Ionic strength (mol/kgw)  =   1.234e-03
                       Mass of water (kg)  =   1.000e+00
                 Total alkalinity (eq/kg)  =   8.230e-04
                       Total CO2 (mol/kg)  =   1.000e-03
                         Temperature (°C)  =  25.00
                  Electrical balance (eq)  =   9.185e-21
 Percent error, 100*(Cat-|An|)/(Cat+|An|)  =   0.00
                               Iterations  =   0
                                  Total H  = 1.110133e+02
                                  Total O  = 5.550904e+01

----------------------------Distribution of species----------------------------

                                               Log       Log       Log    mole V
   Species          Molality    Activity  Molality  Activity     Gamma   cm³/mol

   OH-             1.053e-07   1.012e-07    -6.978    -6.995    -0.017     -4.10
   H+              1.038e-07   1.000e-07    -6.984    -7.000    -0.016      0.00
   H2O             5.551e+01   1.000e+00     1.744    -0.000     0.000     18.07
C(-4)         0.000e+00
   CH4             0.000e+00   0.000e+00   -67.360   -67.360     0.000     35.46
C(4)          1.000e-03
   HCO3-           8.217e-04   7.904e-04    -3.085    -3.102    -0.017     24.56
   CO2             1.777e-04   1.777e-04    -3.750    -3.750     0.000     34.79
   CO3-2           4.330e-07   3.707e-07    -6.364    -6.431    -0.067     -4.66
   CaCO3           2.191e-07   2.192e-07    -6.659    -6.659     0.000    -14.60
   (CO2)2          5.133e-10   5.134e-10    -9.290    -9.290     0.000     68.75
   CaHCO3+         2.535e-11   2.439e-11   -10.596   -10.613    -0.017      9.67
Ca            4.115e-04
   Ca+2            4.113e-04   3.520e-04    -3.386    -3.453    -0.068    -18.13
   CaCO3           2.191e-07   2.192e-07    -6.659    -6.659     0.000    -14.60
   CaOH+           6.077e-10   5.842e-10    -9.216    -9.233    -0.017     (0)  
   CaHCO3+         2.535e-11   2.439e-11   -10.596   -10.613    -0.017      9.67
H(0)          1.415e-25
   H2              7.077e-26   7.079e-26   -25.150   -25.150     0.000     14.99
O(0)          0.000e+00
   O2              0.000e+00   0.000e+00   -42.063   -42.063     0.000     30.40

------------------------------Saturation indices-------------------------------

  Phase               SI** log IAP   log K(298 K,   1 atm)

  Aragonite        -1.55     -9.88   -8.34  CaCO3
  Calcite          -1.44     -9.88   -8.45  CaCO3
  CH4(g)          -64.56    -67.36   -2.80  CH4
  CO2(g)           -2.28     -3.75   -1.47  CO2
  H2(g)           -22.05    -25.15   -3.10  H2
  H2O(g)           -1.50     -0.00    1.50  H2O
  O2(g)           -39.17    -42.06   -2.89  O2

**For a gas, SI = log10(fugacity). Fugacity = pressure * phi / 1 atm.
  For ideal gases, phi = 1.

Using solution 2.	
Using surface 2.	
Using kinetics 2.	

Kinetics 2.	

	Time:      0 seconds
	Time step: 72000 seconds

	Rate name       Delta Moles Total Moles   Reactant        Coefficient

	Add_Ra            0.000e+00   1.000e+00   [224Ra]                   1
	Decay_Ra          0.000e+00   1.000e+00   [224Ra]                   1

------------------------------Surface composition------------------------------

Diffuse Double Layer Surface-Complexation Model

Solid         
	  0.000e+00  Surface charge, eq
	  0.000e+00  sigma, C/m²
	  0.000e+00  psi, V
	 -0.000e+00  -F*psi/RT
	  1.000e+00  exp(-F*psi/RT)
	  1.000e+00  specific area, m²/g
	 1.000e+100  m² for  1.000e+100 g


Solid         
	 1.000e+100  moles
	                                   Mole                     Log
	Species               Moles    Fraction    Molality    Molality

	Solid            1.000e+100       1.000  1.000e+100     100.000

-----------------------------Solution composition------------------------------

	Elements           Molality       Moles

	C                 1.000e-03   1.000e-03
	Ca                4.115e-04   4.115e-04

----------------------------Description of solution----------------------------

                                       pH  =   7.000      Charge balance
                                       pe  =   4.000      Adjusted to redox equilibrium
      Specific Conductance (µS/cm,  25°C)  = 81
                          Density (g/cm³)  =   0.99710
                               Volume (L)  =   1.00298
                        Viscosity (mPa s)  =   0.89077
                        Activity of water  =   1.000
                 Ionic strength (mol/kgw)  =   1.234e-03
                       Mass of water (kg)  =   1.000e+00
                 Total alkalinity (eq/kg)  =   8.230e-04
                       Total CO2 (mol/kg)  =   1.000e-03
                         Temperature (°C)  =  25.00
                  Electrical balance (eq)  =   9.185e-21
 Percent error, 100*(Cat-|An|)/(Cat+|An|)  =   0.00
                               Iterations  =   0
                                  Total H  = 1.110133e+02
                                  Total O  = 5.550904e+01

----------------------------Distribution of species----------------------------

                                               Log       Log       Log    mole V
   Species          Molality    Activity  Molality  Activity     Gamma   cm³/mol

   OH-             1.053e-07   1.012e-07    -6.978    -6.995    -0.017     -4.10
   H+              1.038e-07   1.000e-07    -6.984    -7.000    -0.016      0.00
   H2O             5.551e+01   1.000e+00     1.744    -0.000     0.000     18.07
C(-4)         0.000e+00
   CH4             0.000e+00   0.000e+00   -67.360   -67.360     0.000     35.46
C(4)          1.000e-03
   HCO3-           8.217e-04   7.904e-04    -3.085    -3.102    -0.017     24.56
   CO2             1.777e-04   1.777e-04    -3.750    -3.750     0.000     34.79
   CO3-2           4.330e-07   3.707e-07    -6.364    -6.431    -0.067     -4.66
   CaCO3           2.191e-07   2.192e-07    -6.659    -6.659     0.000    -14.60
   (CO2)2          5.133e-10   5.134e-10    -9.290    -9.290     0.000     68.75
   CaHCO3+         2.535e-11   2.439e-11   -10.596   -10.613    -0.017      9.67
Ca            4.115e-04
   Ca+2            4.113e-04   3.520e-04    -3.386    -3.453    -0.068    -18.13
   CaCO3           2.191e-07   2.192e-07    -6.659    -6.659     0.000    -14.60
   CaOH+           6.077e-10   5.842e-10    -9.216    -9.233    -0.017     (0)  
   CaHCO3+         2.535e-11   2.439e-11   -10.596   -10.613    -0.017      9.67
H(0)          1.415e-25
   H2              7.077e-26   7.079e-26   -25.150   -25.150     0.000     14.99
O(0)          0.000e+00
   O2              0.000e+00   0.000e+00   -42.063   -42.063     0.000     30.40

------------------------------Saturation indices-------------------------------

  Phase               SI** log IAP   log K(298 K,   1 atm)

  Aragonite        -1.55     -9.88   -8.34  CaCO3
  Calcite          -1.44     -9.88   -8.45  CaCO3
  CH4(g)          -64.56    -67.36   -2.80  CH4
  CO2(g)           -2.28     -3.75   -1.47  CO2
  H2(g)           -22.05    -25.15   -3.10  H2
  H2O(g)           -1.50     -0.00    1.50  H2O
  O2(g)           -39.17    -42.06   -2.89  O2

**For a gas, SI = log10(fugacity). Fugacity = pressure * phi / 1 atm.
  For ideal gases, phi = 1.

Using solution 3.	
Using surface 3.	
Using kinetics 3.	

Kinetics 3.	

	Time:      0 seconds
	Time step: 72000 seconds

	Rate name       Delta Moles Total Moles   Reactant        Coefficient

	Add_Ra            0.000e+00   1.000e+00   [224Ra]                   1
	Decay_Ra          0.000e+00   1.000e+00   [224Ra]                   1

------------------------------Surface composition------------------------------

Diffuse Double Layer Surface-Complexation Model

Solid         
	  0.000e+00  Surface charge, eq
	  0.000e+00  sigma, C/m²
	  0.000e+00  psi, V
	 -0.000e+00  -F*psi/RT
	  1.000e+00  exp(-F*psi/RT)
	  1.000e+00  specific area, m²/g
	 1.000e+100  m² for  1.000e+100 g


Solid         
	 1.000e+100  moles
	                                   Mole                     Log
	Species               Moles    Fraction    Molality    Molality

	Solid            1.000e+100       1.000  1.000e+100     100.000

-----------------------------Solution composition------------------------------

	Elements           Molality       Moles

	C                 1.000e-03   1.000e-03
	Ca                4.115e-04   4.115e-04

----------------------------Description of solution----------------------------

                                       pH  =   7.000      Charge balance
                                       pe  =   4.000      Adjusted to redox equilibrium
      Specific Conductance (µS/cm,  25°C)  = 81
                          Density (g/cm³)  =   0.99710
                               Volume (L)  =   1.00298
                        Viscosity (mPa s)  =   0.89077
                        Activity of water  =   1.000
                 Ionic strength (mol/kgw)  =   1.234e-03
                       Mass of water (kg)  =   1.000e+00
                 Total alkalinity (eq/kg)  =   8.230e-04
                       Total CO2 (mol/kg)  =   1.000e-03
                         Temperature (°C)  =  25.00
                  Electrical balance (eq)  =   9.185e-21
 Percent error, 100*(Cat-|An|)/(Cat+|An|)  =   0.00
                               Iterations  =   0
                                  Total H  = 1.110133e+02
                                  Total O  = 5.550904e+01

----------------------------Distribution of species----------------------------

                                               Log       Log       Log    mole V
   Species          Molality    Activity  Molality  Activity     Gamma   cm³/mol

   OH-             1.053e-07   1.012e-07    -6.978    -6.995    -0.017     -4.10
   H+              1.038e-07   1.000e-07    -6.984    -7.000    -0.016      0.00
   H2O             5.551e+01   1.000e+00     1.744    -0.000     0.000     18.07
C(-4)         0.000e+00
   CH4             0.000e+00   0.000e+00   -67.360   -67.360     0.000     35.46
C(4)          1.000e-03
   HCO3-           8.217e-04   7.904e-04    -3.085    -3.102    -0.017     24.56
   CO2             1.777e-04   1.777e-04    -3.750    -3.750     0.000     34.79
   CO3-2           4.330e-07   3.707e-07    -6.364    -6.431    -0.067     -4.66
   CaCO3           2.191e-07   2.192e-07    -6.659    -6.659     0.000    -14.60
   (CO2)2          5.133e-10   5.134e-10    -9.290    -9.290     0.000     68.75
   CaHCO3+         2.535e-11   2.439e-11   -10.596   -10.613    -0.017      9.67
Ca            4.115e-04
   Ca+2            4.113e-04   3.520e-04    -3.386    -3.453    -0.068    -18.13
   CaCO3           2.191e-07   2.192e-07    -6.659    -6.659     0.000    -14.60
   CaOH+           6.077e-10   5.842e-10    -9.216    -9.233    -0.017     (0)  
   CaHCO3+         2.535e-11   2.439e-11   -10.596   -10.613    -0.017      9.67
H(0)          1.415e-25
   H2              7.077e-26   7.079e-26   -25.150   -25.150     0.000     14.99
O(0)          0.000e+00
   O2              0.000e+00   0.000e+00   -42.063   -42.063     0.000     30.40

------------------------------Saturation indices-------------------------------

  Phase               SI** log IAP   log K(298 K,   1 atm)

  Aragonite        -1.55     -9.88   -8.34  CaCO3
  Calcite          -1.44     -9.88   -8.45  CaCO3
  CH4(g)          -64.56    -67.36   -2.80  CH4
  CO2(g)           -2.28     -3.75   -1.47  CO2
  H2(g)           -22.05    -25.15   -3.10  H2
  H2O(g)           -1.50     -0.00    1.50  H2O
  O2(g)           -39.17    -42.06   -2.89  O2

**For a gas, SI = log10(fugacity). Fugacity = pressure * phi / 1 atm.
  For ideal gases, phi = 1.

Using solution 4.	
Using surface 4.	
Using kinetics 4.	

Kinetics 4.	

	Time:      0 seconds
	Time step: 72000 seconds

	Rate name       Delta Moles Total Moles   Reactant        Coefficient

	Add_Ra            0.000e+00   1.000e+00   [224Ra]                   1
	Decay_Ra          0.000e+00   1.000e+00   [224Ra]                   1

------------------------------Surface composition------------------------------

Diffuse Double Layer Surface-Complexation Model

Solid         
	  0.000e+00  Surface charge, eq
	  0.000e+00  sigma, C/m²
	  0.000e+00  psi, V
	 -0.000e+00  -F*psi/RT
	  1.000e+00  exp(-F*psi/RT)
	  1.000e+00  specific area, m²/g
	 1.000e+100  m² for  1.000e+100 g


Solid         
	 1.000e+100  moles
	                                   Mole                     Log
	Species               Moles    Fraction    Molality    Molality

	Solid            1.000e+100       1.000  1.000e+100     100.000

-----------------------------Solution composition------------------------------

	Elements           Molality       Moles

	C                 1.000e-03   1.000e-03
	Ca                4.115e-04   4.115e-04

----------------------------Description of solution----------------------------

                                       pH  =   7.000      Charge balance
                                       pe  =   4.000      Adjusted to redox equilibrium
      Specific Conductance (µS/cm,  25°C)  = 81
                          Density (g/cm³)  =   0.99710
                               Volume (L)  =   1.00298
                        Viscosity (mPa s)  =   0.89077
                        Activity of water  =   1.000
                 Ionic strength (mol/kgw)  =   1.234e-03
                       Mass of water (kg)  =   1.000e+00
                 Total alkalinity (eq/kg)  =   8.230e-04
                       Total CO2 (mol/kg)  =   1.000e-03
                         Temperature (°C)  =  25.00
                  Electrical balance (eq)  =   9.185e-21
 Percent error, 100*(Cat-|An|)/(Cat+|An|)  =   0.00
                               Iterations  =   0
                                  Total H  = 1.110133e+02
                                  Total O  = 5.550904e+01

----------------------------Distribution of species----------------------------

                                               Log       Log       Log    mole V
   Species          Molality    Activity  Molality  Activity     Gamma   cm³/mol

   OH-             1.053e-07   1.012e-07    -6.978    -6.995    -0.017     -4.10
   H+              1.038e-07   1.000e-07    -6.984    -7.000    -0.016      0.00
   H2O             5.551e+01   1.000e+00     1.744    -0.000     0.000     18.07
C(-4)         0.000e+00
   CH4             0.000e+00   0.000e+00   -67.360   -67.360     0.000     35.46
C(4)          1.000e-03
   HCO3-           8.217e-04   7.904e-04    -3.085    -3.102    -0.017     24.56
   CO2             1.777e-04   1.777e-04    -3.750    -3.750     0.000     34.79
   CO3-2           4.330e-07   3.707e-07    -6.364    -6.431    -0.067     -4.66
   CaCO3           2.191e-07   2.192e-07    -6.659    -6.659     0.000    -14.60
   (CO2)2          5.133e-10   5.134e-10    -9.290    -9.290     0.000     68.75
   CaHCO3+         2.535e-11   2.439e-11   -10.596   -10.613    -0.017      9.67
Ca            4.115e-04
   Ca+2            4.113e-04   3.520e-04    -3.386    -3.453    -0.068    -18.13
   CaCO3           2.191e-07   2.192e-07    -6.659    -6.659     0.000    -14.60
   CaOH+           6.077e-10   5.842e-10    -9.216    -9.233    -0.017     (0)  
   CaHCO3+         2.535e-11   2.439e-11   -10.596   -10.613    -0.017      9.67
H(0)          1.415e-25
   H2              7.077e-26   7.079e-26   -25.150   -25.150     0.000     14.99
O(0)          0.000e+00
   O2              0.000e+00   0.000e+00   -42.063   -42.063     0.000     30.40

------------------------------Saturation indices-------------------------------

  Phase               SI** log IAP   log K(298 K,   1 atm)

  Aragonite        -1.55     -9.88   -8.34  CaCO3
  Calcite          -1.44     -9.88   -8.45  CaCO3
  CH4(g)          -64.56    -67.36   -2.80  CH4
  CO2(g)           -2.28     -3.75   -1.47  CO2
  H2(g)           -22.05    -25.15   -3.10  H2
  H2O(g)           -1.50     -0.00    1.50  H2O
  O2(g)           -39.17    -42.06   -2.89  O2

**For a gas, SI = log10(fugacity). Fugacity = pressure * phi / 1 atm.
  For ideal gases, phi = 1.

Using solution 5.	
Using surface 5.	
Using kinetics 5.	

Kinetics 5.	

	Time:      0 seconds
	Time step: 72000 seconds

	Rate name       Delta Moles Total Moles   Reactant        Coefficient

	Add_Ra            0.000e+00   1.000e+00   [224Ra]                   1
	Decay_Ra          0.000e+00   1.000e+00   [224Ra]                   1

------------------------------Surface composition------------------------------

Diffuse Double Layer Surface-Complexation Model

Solid         
	  0.000e+00  Surface charge, eq
	  0.000e+00  sigma, C/m²
	  0.000e+00  psi, V
	 -0.000e+00  -F*psi/RT
	  1.000e+00  exp(-F*psi/RT)
	  1.000e+00  specific area, m²/g
	 1.000e+100  m² for  1.000e+100 g


Solid         
	 1.000e+100  moles
	                                   Mole                     Log
	Species               Moles    Fraction    Molality    Molality

	Solid            1.000e+100       1.000  1.000e+100     100.000

-----------------------------Solution composition------------------------------

	Elements           Molality       Moles

	C                 1.000e-03   1.000e-03
	Ca                4.115e-04   4.115e-04

----------------------------Description of solution----------------------------

                                       pH  =   7.000      Charge balance
                                       pe  =   4.000      Adjusted to redox equilibrium
      Specific Conductance (µS/cm,  25°C)  = 81
                          Density (g/cm³)  =   0.99710
                               Volume (L)  =   1.00298
                        Viscosity (mPa s)  =   0.89077
                        Activity of water  =   1.000
                 Ionic strength (mol/kgw)  =   1.234e-03
                       Mass of water (kg)  =   1.000e+00
                 Total alkalinity (eq/kg)  =   8.230e-04
                       Total CO2 (mol/kg)  =   1.000e-03
                         Temperature (°C)  =  25.00
                  Electrical balance (eq)  =   9.185e-21
 Percent error, 100*(Cat-|An|)/(Cat+|An|)  =   0.00
                               Iterations  =   0
                                  Total H  = 1.110133e+02
                                  Total O  = 5.550904e+01

----------------------------Distribution of species----------------------------

                                               Log       Log       Log    mole V
   Species          Molality    Activity  Molality  Activity     Gamma   cm³/mol

   OH-             1.053e-07   1.012e-07    -6.978    -6.995    -0.017     -4.10
   H+              1.038e-07   1.000e-07    -6.984    -7.000    -0.016      0.00
   H2O             5.551e+01   1.000e+00     1.744    -0.000     0.000     18.07
C(-4)         0.000e+00
   CH4             0.000e+00   0.000e+00   -67.360   -67.360     0.000     35.46
C(4)          1.000e-03
   HCO3-           8.217e-04   7.904e-04    -3.085    -3.102    -0.017     24.56
   CO2             1.777e-04   1.777e-04    -3.750    -3.750     0.000     34.79
   CO3-2           4.330e-07   3.707e-07    -6.364    -6.431    -0.067     -4.66
   CaCO3           2.191e-07   2.192e-07    -6.659    -6.659     0.000    -14.60
   (CO2)2          5.133e-10   5.134e-10    -9.290    -9.290     0.000     68.75
   CaHCO3+         2.535e-11   2.439e-11   -10.596   -10.613    -0.017      9.67
Ca            4.115e-04
   Ca+2            4.113e-04   3.520e-04    -3.386    -3.453    -0.068    -18.13
   CaCO3           2.191e-07   2.192e-07    -6.659    -6.659     0.000    -14.60
   CaOH+           6.077e-10   5.842e-10    -9.216    -9.233    -0.017     (0)  
   CaHCO3+         2.535e-11   2.439e-11   -10.596   -10.613    -0.017      9.67
H(0)          1.415e-25
   H2              7.077e-26   7.079e-26   -25.150   -25.150     0.000     14.99
O(0)          0.000e+00
   O2              0.000e+00   0.000e+00   -42.063   -42.063     0.000     30.40

------------------------------Saturation indices-------------------------------

  Phase               SI** log IAP   log K(298 K,   1 atm)

  Aragonite        -1.55     -9.88   -8.34  CaCO3
  Calcite          -1.44     -9.88   -8.45  CaCO3
  CH4(g)          -64.56    -67.36   -2.80  CH4
  CO2(g)           -2.28     -3.75   -1.47  CO2
  H2(g)           -22.05    -25.15   -3.10  H2
  H2O(g)           -1.50     -0.00    1.50  H2O
  O2(g)           -39.17    -42.06   -2.89  O2

**For a gas, SI = log10(fugacity). Fugacity = pressure * phi / 1 atm.
  For ideal gases, phi = 1.

Using solution 6.	
Using surface 6.	
Using kinetics 6.	

Kinetics 6.	

	Time:      0 seconds
	Time step: 72000 seconds

	Rate name       Delta Moles Total Moles   Reactant        Coefficient

	Add_Ra            0.000e+00   1.000e+00   [224Ra]                   1
	Decay_Ra          0.000e+00   1.000e+00   [224Ra]                   1

------------------------------Surface composition------------------------------

Diffuse Double Layer Surface-Complexation Model

Solid         
	  0.000e+00  Surface charge, eq
	  0.000e+00  sigma, C/m²
	  0.000e+00  psi, V
	 -0.000e+00  -F*psi/RT
	  1.000e+00  exp(-F*psi/RT)
	  1.000e+00  specific area, m²/g
	 1.000e+100  m² for  1.000e+100 g


Solid         
	 1.000e+100  moles
	                                   Mole                     Log
	Species               Moles    Fraction    Molality    Molality

	Solid            1.000e+100       1.000  1.000e+100     100.000

-----------------------------Solution composition------------------------------

	Elements           Molality       Moles

	C                 1.000e-03   1.000e-03
	Ca                4.115e-04   4.115e-04

----------------------------Description of solution----------------------------

                                       pH  =   7.000      Charge balance
                                       pe  =   4.000      Adjusted to redox equilibrium
      Specific Conductance (µS/cm,  25°C)  = 81
                          Density (g/cm³)  =   0.99710
                               Volume (L)  =   1.00298
                        Viscosity (mPa s)  =   0.89077
                        Activity of water  =   1.000
                 Ionic strength (mol/kgw)  =   1.234e-03
                       Mass of water (kg)  =   1.000e+00
                 Total alkalinity (eq/kg)  =   8.230e-04
                       Total CO2 (mol/kg)  =   1.000e-03
                         Temperature (°C)  =  25.00
                  Electrical balance (eq)  =   9.185e-21
 Percent error, 100*(Cat-|An|)/(Cat+|An|)  =   0.00
                               Iterations  =   0
                                  Total H  = 1.110133e+02
                                  Total O  = 5.550904e+01

----------------------------Distribution of species----------------------------

                                               Log       Log       Log    mole V
   Species          Molality    Activity  Molality  Activity     Gamma   cm³/mol

   OH-             1.053e-07   1.012e-07    -6.978    -6.995    -0.017     -4.10
   H+              1.038e-07   1.000e-07    -6.984    -7.000    -0.016      0.00
   H2O             5.551e+01   1.000e+00     1.744    -0.000     0.000     18.07
C(-4)         0.000e+00
   CH4             0.000e+00   0.000e+00   -67.360   -67.360     0.000     35.46
C(4)          1.000e-03
   HCO3-           8.217e-04   7.904e-04    -3.085    -3.102    -0.017     24.56
   CO2             1.777e-04   1.777e-04    -3.750    -3.750     0.000     34.79
   CO3-2           4.330e-07   3.707e-07    -6.364    -6.431    -0.067     -4.66
   CaCO3           2.191e-07   2.192e-07    -6.659    -6.659     0.000    -14.60
   (CO2)2          5.133e-10   5.134e-10    -9.290    -9.290     0.000     68.75
   CaHCO3+         2.535e-11   2.439e-11   -10.596   -10.613    -0.017      9.67
Ca            4.115e-04
   Ca+2            4.113e-04   3.520e-04    -3.386    -3.453    -0.068    -18.13
   CaCO3           2.191e-07   2.192e-07    -6.659    -6.659     0.000    -14.60
   CaOH+           6.077e-10   5.842e-10    -9.216    -9.233    -0.017     (0)  
   CaHCO3+         2.535e-11   2.439e-11   -10.596   -10.613    -0.017      9.67
H(0)          1.415e-25
   H2              7.077e-26   7.079e-26   -25.150   -25.150     0.000     14.99
O(0)          0.000e+00
   O2              0.000e+00   0.000e+00   -42.063   -42.063     0.000     30.40

------------------------------Saturation indices-------------------------------

  Phase               SI** log IAP   log K(298 K,   1 atm)

  Aragonite        -1.55     -9.88   -8.34  CaCO3
  Calcite          -1.44     -9.88   -8.45  CaCO3
  CH4(g)          -64.56    -67.36   -2.80  CH4
  CO2(g)           -2.28     -3.75   -1.47  CO2
  H2(g)           -22.05    -25.15   -3.10  H2
  H2O(g)           -1.50     -0.00    1.50  H2O
  O2(g)           -39.17    -42.06   -2.89  O2

**For a gas, SI = log10(fugacity). Fugacity = pressure * phi / 1 atm.
  For ideal gases, phi = 1.

Using solution 7.	
Using surface 7.	
Using kinetics 7.	

Kinetics 7.	

	Time:      0 seconds
	Time step: 72000 seconds

	Rate name       Delta Moles Total Moles   Reactant        Coefficient

	Add_Ra            0.000e+00   1.000e+00   [224Ra]                   1
	Decay_Ra          0.000e+00   1.000e+00   [224Ra]                   1

------------------------------Surface composition------------------------------

Diffuse Double Layer Surface-Complexation Model

Solid         
	  0.000e+00  Surface charge, eq
	  0.000e+00  sigma, C/m²
	  0.000e+00  psi, V
	 -0.000e+00  -F*psi/RT
	  1.000e+00  exp(-F*psi/RT)
	  1.000e+00  specific area, m²/g
	 1.000e+100  m² for  1.000e+100 g


Solid         
	 1.000e+100  moles
	                                   Mole                     Log
	Species               Moles    Fraction    Molality    Molality

	Solid            1.000e+100       1.000  1.000e+100     100.000

-----------------------------Solution composition------------------------------

	Elements           Molality       Moles

	C                 1.000e-03   1.000e-03
	Ca                4.115e-04   4.115e-04

----------------------------Description of solution----------------------------

                                       pH  =   7.000      Charge balance
                                       pe  =   4.000      Adjusted to redox equilibrium
      Specific Conductance (µS/cm,  25°C)  = 81
                          Density (g/cm³)  =   0.99710
                               Volume (L)  =   1.00298
                        Viscosity (mPa s)  =   0.89077
                        Activity of water  =   1.000
                 Ionic strength (mol/kgw)  =   1.234e-03
                       Mass of water (kg)  =   1.000e+00
                 Total alkalinity (eq/kg)  =   8.230e-04
                       Total CO2 (mol/kg)  =   1.000e-03
                         Temperature (°C)  =  25.00
                  Electrical balance (eq)  =   9.185e-21
 Percent error, 100*(Cat-|An|)/(Cat+|An|)  =   0.00
                               Iterations  =   0
                                  Total H  = 1.110133e+02
                                  Total O  = 5.550904e+01

----------------------------Distribution of species----------------------------

                                               Log       Log       Log    mole V
   Species          Molality    Activity  Molality  Activity     Gamma   cm³/mol

   OH-             1.053e-07   1.012e-07    -6.978    -6.995    -0.017     -4.10
   H+              1.038e-07   1.000e-07    -6.984    -7.000    -0.016      0.00
   H2O             5.551e+01   1.000e+00     1.744    -0.000     0.000     18.07
C(-4)         0.000e+00
   CH4             0.000e+00   0.000e+00   -67.360   -67.360     0.000     35.46
C(4)          1.000e-03
   HCO3-           8.217e-04   7.904e-04    -3.085    -3.102    -0.017     24.56
   CO2             1.777e-04   1.777e-04    -3.750    -3.750     0.000     34.79
   CO3-2           4.330e-07   3.707e-07    -6.364    -6.431    -0.067     -4.66
   CaCO3           2.191e-07   2.192e-07    -6.659    -6.659     0.000    -14.60
   (CO2)2          5.133e-10   5.134e-10    -9.290    -9.290     0.000     68.75
   CaHCO3+         2.535e-11   2.439e-11   -10.596   -10.613    -0.017      9.67
Ca            4.115e-04
   Ca+2            4.113e-04   3.520e-04    -3.386    -3.453    -0.068    -18.13
   CaCO3           2.191e-07   2.192e-07    -6.659    -6.659     0.000    -14.60
   CaOH+           6.077e-10   5.842e-10    -9.216    -9.233    -0.017     (0)  
   CaHCO3+         2.535e-11   2.439e-11   -10.596   -10.613    -0.017      9.67
H(0)          1.415e-25
   H2              7.077e-26   7.079e-26   -25.150   -25.150     0.000     14.99
O(0)          0.000e+00
   O2              0.000e+00   0.000e+00   -42.063   -42.063     0.000     30.40

------------------------------Saturation indices-------------------------------

  Phase               SI** log IAP   log K(298 K,   1 atm)

  Aragonite        -1.55     -9.88   -8.34  CaCO3
  Calcite          -1.44     -9.88   -8.45  CaCO3
  CH4(g)          -64.56    -67.36   -2.80  CH4
  CO2(g)           -2.28     -3.75   -1.47  CO2
  H2(g)           -22.05    -25.15   -3.10  H2
  H2O(g)           -1.50     -0.00    1.50  H2O
  O2(g)           -39.17    -42.06   -2.89  O2

**For a gas, SI = log10(fugacity). Fugacity = pressure * phi / 1 atm.
  For ideal gases, phi = 1.

Using solution 8.	
Using surface 8.	
Using kinetics 8.	

Kinetics 8.	

	Time:      0 seconds
	Time step: 72000 seconds

	Rate name       Delta Moles Total Moles   Reactant        Coefficient

	Add_Ra            0.000e+00   1.000e+00   [224Ra]                   1
	Decay_Ra          0.000e+00   1.000e+00   [224Ra]                   1

------------------------------Surface composition------------------------------

Diffuse Double Layer Surface-Complexation Model

Solid         
	  0.000e+00  Surface charge, eq
	  0.000e+00  sigma, C/m²
	  0.000e+00  psi, V
	 -0.000e+00  -F*psi/RT
	  1.000e+00  exp(-F*psi/RT)
	  1.000e+00  specific area, m²/g
	 1.000e+100  m² for  1.000e+100 g


Solid         
	 1.000e+100  moles
	                                   Mole                     Log
	Species               Moles    Fraction    Molality    Molality

	Solid            1.000e+100       1.000  1.000e+100     100.000

-----------------------------Solution composition------------------------------

	Elements           Molality       Moles

	C                 1.000e-03   1.000e-03
	Ca                4.115e-04   4.115e-04

----------------------------Description of solution----------------------------

                                       pH  =   7.000      Charge balance
                                       pe  =   4.000      Adjusted to redox equilibrium
      Specific Conductance (µS/cm,  25°C)  = 81
                          Density (g/cm³)  =   0.99710
                               Volume (L)  =   1.00298
                        Viscosity (mPa s)  =   0.89077
                        Activity of water  =   1.000
                 Ionic strength (mol/kgw)  =   1.234e-03
                       Mass of water (kg)  =   1.000e+00
                 Total alkalinity (eq/kg)  =   8.230e-04
                       Total CO2 (mol/kg)  =   1.000e-03
                         Temperature (°C)  =  25.00
                  Electrical balance (eq)  =   9.185e-21
 Percent error, 100*(Cat-|An|)/(Cat+|An|)  =   0.00
                               Iterations  =   0
                                  Total H  = 1.110133e+02
                                  Total O  = 5.550904e+01

----------------------------Distribution of species----------------------------

                                               Log       Log       Log    mole V
   Species          Molality    Activity  Molality  Activity     Gamma   cm³/mol

   OH-             1.053e-07   1.012e-07    -6.978    -6.995    -0.017     -4.10
   H+              1.038e-07   1.000e-07    -6.984    -7.000    -0.016      0.00
   H2O             5.551e+01   1.000e+00     1.744    -0.000     0.000     18.07
C(-4)         0.000e+00
   CH4             0.000e+00   0.000e+00   -67.360   -67.360     0.000     35.46
C(4)          1.000e-03
   HCO3-           8.217e-04   7.904e-04    -3.085    -3.102    -0.017     24.56
   CO2             1.777e-04   1.777e-04    -3.750    -3.750     0.000     34.79
   CO3-2           4.330e-07   3.707e-07    -6.364    -6.431    -0.067     -4.66
   CaCO3           2.191e-07   2.192e-07    -6.659    -6.659     0.000    -14.60
   (CO2)2          5.133e-10   5.134e-10    -9.290    -9.290     0.000     68.75
   CaHCO3+         2.535e-11   2.439e-11   -10.596   -10.613    -0.017      9.67
Ca            4.115e-04
   Ca+2            4.113e-04   3.520e-04    -3.386    -3.453    -0.068    -18.13
   CaCO3           2.191e-07   2.192e-07    -6.659    -6.659     0.000    -14.60
   CaOH+           6.077e-10   5.842e-10    -9.216    -9.233    -0.017     (0)  
   CaHCO3+         2.535e-11   2.439e-11   -10.596   -10.613    -0.017      9.67
H(0)          1.415e-25
   H2              7.077e-26   7.079e-26   -25.150   -25.150     0.000     14.99
O(0)          0.000e+00
   O2              0.000e+00   0.000e+00   -42.063   -42.063     0.000     30.40

------------------------------Saturation indices-------------------------------

  Phase               SI** log IAP   log K(298 K,   1 atm)

  Aragonite        -1.55     -9.88   -8.34  CaCO3
  Calcite          -1.44     -9.88   -8.45  CaCO3
  CH4(g)          -64.56    -67.36   -2.80  CH4
  CO2(g)           -2.28     -3.75   -1.47  CO2
  H2(g)           -22.05    -25.15   -3.10  H2
  H2O(g)           -1.50     -0.00    1.50  H2O
  O2(g)           -39.17    -42.06   -2.89  O2

**For a gas, SI = log10(fugacity). Fugacity = pressure * phi / 1 atm.
  For ideal gases, phi = 1.

Using solution 9.	
Using surface 9.	
Using kinetics 9.	

Kinetics 9.	

	Time:      0 seconds
	Time step: 72000 seconds

	Rate name       Delta Moles Total Moles   Reactant        Coefficient

	Add_Ra            0.000e+00   1.000e+00   [224Ra]                   1
	Decay_Ra          0.000e+00   1.000e+00   [224Ra]                   1

------------------------------Surface composition------------------------------

Diffuse Double Layer Surface-Complexation Model

Solid         
	  0.000e+00  Surface charge, eq
	  0.000e+00  sigma, C/m²
	  0.000e+00  psi, V
	 -0.000e+00  -F*psi/RT
	  1.000e+00  exp(-F*psi/RT)
	  1.000e+00  specific area, m²/g
	 1.000e+100  m² for  1.000e+100 g


Solid         
	 1.000e+100  moles
	                                   Mole                     Log
	Species               Moles    Fraction    Molality    Molality

	Solid            1.000e+100       1.000  1.000e+100     100.000

-----------------------------Solution composition------------------------------

	Elements           Molality       Moles

	C                 1.000e-03   1.000e-03
	Ca                4.115e-04   4.115e-04

----------------------------Description of solution----------------------------

                                       pH  =   7.000      Charge balance
                                       pe  =   4.000      Adjusted to redox equilibrium
      Specific Conductance (µS/cm,  25°C)  = 81
                          Density (g/cm³)  =   0.99710
                               Volume (L)  =   1.00298
                        Viscosity (mPa s)  =   0.89077
                        Activity of water  =   1.000
                 Ionic strength (mol/kgw)  =   1.234e-03
                       Mass of water (kg)  =   1.000e+00
                 Total alkalinity (eq/kg)  =   8.230e-04
                       Total CO2 (mol/kg)  =   1.000e-03
                         Temperature (°C)  =  25.00
                  Electrical balance (eq)  =   9.185e-21
 Percent error, 100*(Cat-|An|)/(Cat+|An|)  =   0.00
                               Iterations  =   0
                                  Total H  = 1.110133e+02
                                  Total O  = 5.550904e+01

----------------------------Distribution of species----------------------------

                                               Log       Log       Log    mole V
   Species          Molality    Activity  Molality  Activity     Gamma   cm³/mol

   OH-             1.053e-07   1.012e-07    -6.978    -6.995    -0.017     -4.10
   H+              1.038e-07   1.000e-07    -6.984    -7.000    -0.016      0.00
   H2O             5.551e+01   1.000e+00     1.744    -0.000     0.000     18.07
C(-4)         0.000e+00
   CH4             0.000e+00   0.000e+00   -67.360   -67.360     0.000     35.46
C(4)          1.000e-03
   HCO3-           8.217e-04   7.904e-04    -3.085    -3.102    -0.017     24.56
   CO2             1.777e-04   1.777e-04    -3.750    -3.750     0.000     34.79
   CO3-2           4.330e-07   3.707e-07    -6.364    -6.431    -0.067     -4.66
   CaCO3           2.191e-07   2.192e-07    -6.659    -6.659     0.000    -14.60
   (CO2)2          5.133e-10   5.134e-10    -9.290    -9.290     0.000     68.75
   CaHCO3+         2.535e-11   2.439e-11   -10.596   -10.613    -0.017      9.67
Ca            4.115e-04
   Ca+2            4.113e-04   3.520e-04    -3.386    -3.453    -0.068    -18.13
   CaCO3           2.191e-07   2.192e-07    -6.659    -6.659     0.000    -14.60
   CaOH+           6.077e-10   5.842e-10    -9.216    -9.233    -0.017     (0)  
   CaHCO3+         2.535e-11   2.439e-11   -10.596   -10.613    -0.017      9.67
H(0)          1.415e-25
   H2              7.077e-26   7.079e-26   -25.150   -25.150     0.000     14.99
O(0)          0.000e+00
   O2              0.000e+00   0.000e+00   -42.063   -42.063     0.000     30.40

------------------------------Saturation indices-------------------------------

  Phase               SI** log IAP   log K(298 K,   1 atm)

  Aragonite        -1.55     -9.88   -8.34  CaCO3
  Calcite          -1.44     -9.88   -8.45  CaCO3
  CH4(g)          -64.56    -67.36   -2.80  CH4
  CO2(g)           -2.28     -3.75   -1.47  CO2
  H2(g)           -22.05    -25.15   -3.10  H2
  H2O(g)           -1.50     -0.00    1.50  H2O
  O2(g)           -39.17    -42.06   -2.89  O2

**For a gas, SI = log10(fugacity). Fugacity = pressure * phi / 1 atm.
  For ideal gases, phi = 1.

Using solution 10.	
Using surface 10.	
Using kinetics 10.	

Kinetics 10.	

	Time:      0 seconds
	Time step: 72000 seconds

	Rate name       Delta Moles Total Moles   Reactant        Coefficient

	Add_Ra            0.000e+00   1.000e+00   [224Ra]                   1
	Decay_Ra          0.000e+00   1.000e+00   [224Ra]                   1

------------------------------Surface composition------------------------------

Diffuse Double Layer Surface-Complexation Model

Solid         
	  0.000e+00  Surface charge, eq
	  0.000e+00  sigma, C/m²
	  0.000e+00  psi, V
	 -0.000e+00  -F*psi/RT
	  1.000e+00  exp(-F*psi/RT)
	  1.000e+00  specific area, m²/g
	 1.000e+100  m² for  1.000e+100 g


Solid         
	 1.000e+100  moles
	                                   Mole                     Log
	Species               Moles    Fraction    Molality    Molality

	Solid            1.000e+100       1.000  1.000e+100     100.000

-----------------------------Solution composition------------------------------

	Elements           Molality       Moles

	C                 1.000e-03   1.000e-03
	Ca                4.115e-04   4.115e-04

----------------------------Description of solution----------------------------

                                       pH  =   7.000      Charge balance
                                       pe  =   4.000      Adjusted to redox equilibrium
      Specific Conductance (µS/cm,  25°C)  = 81
                          Density (g/cm³)  =   0.99710
                               Volume (L)  =   1.00298
                        Viscosity (mPa s)  =   0.89077
                        Activity of water  =   1.000
                 Ionic strength (mol/kgw)  =   1.234e-03
                       Mass of water (kg)  =   1.000e+00
                 Total alkalinity (eq/kg)  =   8.230e-04
                       Total CO2 (mol/kg)  =   1.000e-03
                         Temperature (°C)  =  25.00
                  Electrical balance (eq)  =   9.185e-21
 Percent error, 100*(Cat-|An|)/(Cat+|An|)  =   0.00
                               Iterations  =   0
                                  Total H  = 1.110133e+02
                                  Total O  = 5.550904e+01

----------------------------Distribution of species----------------------------

                                               Log       Log       Log    mole V
   Species          Molality    Activity  Molality  Activity     Gamma   cm³/mol

   OH-             1.053e-07   1.012e-07    -6.978    -6.995    -0.017     -4.10
   H+              1.038e-07   1.000e-07    -6.984    -7.000    -0.016      0.00
   H2O             5.551e+01   1.000e+00     1.744    -0.000     0.000     18.07
C(-4)         0.000e+00
   CH4             0.000e+00   0.000e+00   -67.360   -67.360     0.000     35.46
C(4)          1.000e-03
   HCO3-           8.217e-04   7.904e-04    -3.085    -3.102    -0.017     24.56
   CO2             1.777e-04   1.777e-04    -3.750    -3.750     0.000     34.79
   CO3-2           4.330e-07   3.707e-07    -6.364    -6.431    -0.067     -4.66
   CaCO3           2.191e-07   2.192e-07    -6.659    -6.659     0.000    -14.60
   (CO2)2          5.133e-10   5.134e-10    -9.290    -9.290     0.000     68.75
   CaHCO3+         2.535e-11   2.439e-11   -10.596   -10.613    -0.017      9.67
Ca            4.115e-04
   Ca+2            4.113e-04   3.520e-04    -3.386    -3.453    -0.068    -18.13
   CaCO3           2.191e-07   2.192e-07    -6.659    -6.659     0.000    -14.60
   CaOH+           6.077e-10   5.842e-10    -9.216    -9.233    -0.017     (0)  
   CaHCO3+         2.535e-11   2.439e-11   -10.596   -10.613    -0.017      9.67
H(0)          1.415e-25
   H2              7.077e-26   7.079e-26   -25.150   -25.150     0.000     14.99
O(0)          0.000e+00
   O2              0.000e+00   0.000e+00   -42.063   -42.063     0.000     30.40

------------------------------Saturation indices-------------------------------

  Phase               SI** log IAP   log K(298 K,   1 atm)

  Aragonite        -1.55     -9.88   -8.34  CaCO3
  Calcite          -1.44     -9.88   -8.45  CaCO3
  CH4(g)          -64.56    -67.36   -2.80  CH4
  CO2(g)           -2.28     -3.75   -1.47  CO2
  H2(g)           -22.05    -25.15   -3.10  H2
  H2O(g)           -1.50     -0.00    1.50  H2O
  O2(g)           -39.17    -42.06   -2.89  O2

**For a gas, SI = log10(fugacity). Fugacity = pressure * phi / 1 atm.
  For ideal gases, phi = 1.

Using solution 11.	
Using surface 11.	
Using kinetics 11.	

Kinetics 11.	

	Time:      0 seconds
	Time step: 72000 seconds

	Rate name       Delta Moles Total Moles   Reactant        Coefficient

	Add_Ra            0.000e+00   1.000e+00   [224Ra]                   1
	Decay_Ra          0.000e+00   1.000e+00   [224Ra]                   1

------------------------------Surface composition------------------------------

Diffuse Double Layer Surface-Complexation Model

Solid         
	  0.000e+00  Surface charge, eq
	  0.000e+00  sigma, C/m²
	  0.000e+00  psi, V
	 -0.000e+00  -F*psi/RT
	  1.000e+00  exp(-F*psi/RT)
	  1.000e+00  specific area, m²/g
	 1.000e+100  m² for  1.000e+100 g


Solid         
	 1.000e+100  moles
	                                   Mole                     Log
	Species               Moles    Fraction    Molality    Molality

	Solid            1.000e+100       1.000  1.000e+100     100.000

-----------------------------Solution composition------------------------------

	Elements           Molality       Moles

	C                 1.000e-03   1.000e-03
	Ca                4.115e-04   4.115e-04

----------------------------Description of solution----------------------------

                                       pH  =   7.000      Charge balance
                                       pe  =   4.000      Adjusted to redox equilibrium
      Specific Conductance (µS/cm,  25°C)  = 81
                          Density (g/cm³)  =   0.99710
                               Volume (L)  =   1.00298
                        Viscosity (mPa s)  =   0.89077
                        Activity of water  =   1.000
                 Ionic strength (mol/kgw)  =   1.234e-03
                       Mass of water (kg)  =   1.000e+00
                 Total alkalinity (eq/kg)  =   8.230e-04
                       Total CO2 (mol/kg)  =   1.000e-03
                         Temperature (°C)  =  25.00
                  Electrical balance (eq)  =   9.185e-21
 Percent error, 100*(Cat-|An|)/(Cat+|An|)  =   0.00
                               Iterations  =   0
                                  Total H  = 1.110133e+02
                                  Total O  = 5.550904e+01

----------------------------Distribution of species----------------------------

                                               Log       Log       Log    mole V
   Species          Molality    Activity  Molality  Activity     Gamma   cm³/mol

   OH-             1.053e-07   1.012e-07    -6.978    -6.995    -0.017     -4.10
   H+              1.038e-07   1.000e-07    -6.984    -7.000    -0.016      0.00
   H2O             5.551e+01   1.000e+00     1.744    -0.000     0.000     18.07
C(-4)         0.000e+00
   CH4             0.000e+00   0.000e+00   -67.360   -67.360     0.000     35.46
C(4)          1.000e-03
   HCO3-           8.217e-04   7.904e-04    -3.085    -3.102    -0.017     24.56
   CO2             1.777e-04   1.777e-04    -3.750    -3.750     0.000     34.79
   CO3-2           4.330e-07   3.707e-07    -6.364    -6.431    -0.067     -4.66
   CaCO3           2.191e-07   2.192e-07    -6.659    -6.659     0.000    -14.60
   (CO2)2          5.133e-10   5.134e-10    -9.290    -9.290     0.000     68.75
   CaHCO3+         2.535e-11   2.439e-11   -10.596   -10.613    -0.017      9.67
Ca            4.115e-04
   Ca+2            4.113e-04   3.520e-04    -3.386    -3.453    -0.068    -18.13
   CaCO3           2.191e-07   2.192e-07    -6.659    -6.659     0.000    -14.60
   CaOH+           6.077e-10   5.842e-10    -9.216    -9.233    -0.017     (0)  
   CaHCO3+         2.535e-11   2.439e-11   -10.596   -10.613    -0.017      9.67
H(0)          1.415e-25
   H2              7.077e-26   7.079e-26   -25.150   -25.150     0.000     14.99
O(0)          0.000e+00
   O2              0.000e+00   0.000e+00   -42.063   -42.063     0.000     30.40

------------------------------Saturation indices-------------------------------

  Phase               SI** log IAP   log K(298 K,   1 atm)

  Aragonite        -1.55     -9.88   -8.34  CaCO3
  Calcite          -1.44     -9.88   -8.45  CaCO3
  CH4(g)          -64.56    -67.36   -2.80  CH4
  CO2(g)           -2.28     -3.75   -1.47  CO2
  H2(g)           -22.05    -25.15   -3.10  H2
  H2O(g)           -1.50     -0.00    1.50  H2O
  O2(g)           -39.17    -42.06   -2.89  O2

**For a gas, SI = log10(fugacity). Fugacity = pressure * phi / 1 atm.
  For ideal gases, phi = 1.

Using solution 12.	
Using surface 12.	
Using kinetics 12.	

Kinetics 12.	

	Time:      0 seconds
	Time step: 72000 seconds

	Rate name       Delta Moles Total Moles   Reactant        Coefficient

	Add_Ra            0.000e+00   1.000e+00   [224Ra]                   1
	Decay_Ra          0.000e+00   1.000e+00   [224Ra]                   1

------------------------------Surface composition------------------------------

Diffuse Double Layer Surface-Complexation Model

Solid         
	  0.000e+00  Surface charge, eq
	  0.000e+00  sigma, C/m²
	  0.000e+00  psi, V
	 -0.000e+00  -F*psi/RT
	  1.000e+00  exp(-F*psi/RT)
	  1.000e+00  specific area, m²/g
	 1.000e+100  m² for  1.000e+100 g


Solid         
	 1.000e+100  moles
	                                   Mole                     Log
	Species               Moles    Fraction    Molality    Molality

	Solid            1.000e+100       1.000  1.000e+100     100.000

-----------------------------Solution composition------------------------------

	Elements           Molality       Moles

	C                 1.000e-03   1.000e-03
	Ca                4.115e-04   4.115e-04

----------------------------Description of solution----------------------------

                                       pH  =   7.000      Charge balance
                                       pe  =   4.000      Adjusted to redox equilibrium
      Specific Conductance (µS/cm,  25°C)  = 81
                          Density (g/cm³)  =   0.99710
                               Volume (L)  =   1.00298
                        Viscosity (mPa s)  =   0.89077
                        Activity of water  =   1.000
                 Ionic strength (mol/kgw)  =   1.234e-03
                       Mass of water (kg)  =   1.000e+00
                 Total alkalinity (eq/kg)  =   8.230e-04
                       Total CO2 (mol/kg)  =   1.000e-03
                         Temperature (°C)  =  25.00
                  Electrical balance (eq)  =   9.185e-21
 Percent error, 100*(Cat-|An|)/(Cat+|An|)  =   0.00
                               Iterations  =   0
                                  Total H  = 1.110133e+02
                                  Total O  = 5.550904e+01

----------------------------Distribution of species----------------------------

                                               Log       Log       Log    mole V
   Species          Molality    Activity  Molality  Activity     Gamma   cm³/mol

   OH-             1.053e-07   1.012e-07    -6.978    -6.995    -0.017     -4.10
   H+              1.038e-07   1.000e-07    -6.984    -7.000    -0.016      0.00
   H2O             5.551e+01   1.000e+00     1.744    -0.000     0.000     18.07
C(-4)         0.000e+00
   CH4             0.000e+00   0.000e+00   -67.360   -67.360     0.000     35.46
C(4)          1.000e-03
   HCO3-           8.217e-04   7.904e-04    -3.085    -3.102    -0.017     24.56
   CO2             1.777e-04   1.777e-04    -3.750    -3.750     0.000     34.79
   CO3-2           4.330e-07   3.707e-07    -6.364    -6.431    -0.067     -4.66
   CaCO3           2.191e-07   2.192e-07    -6.659    -6.659     0.000    -14.60
   (CO2)2          5.133e-10   5.134e-10    -9.290    -9.290     0.000     68.75
   CaHCO3+         2.535e-11   2.439e-11   -10.596   -10.613    -0.017      9.67
Ca            4.115e-04
   Ca+2            4.113e-04   3.520e-04    -3.386    -3.453    -0.068    -18.13
   CaCO3           2.191e-07   2.192e-07    -6.659    -6.659     0.000    -14.60
   CaOH+           6.077e-10   5.842e-10    -9.216    -9.233    -0.017     (0)  
   CaHCO3+         2.535e-11   2.439e-11   -10.596   -10.613    -0.017      9.67
H(0)          1.415e-25
   H2              7.077e-26   7.079e-26   -25.150   -25.150     0.000     14.99
O(0)          0.000e+00
   O2              0.000e+00   0.000e+00   -42.063   -42.063     0.000     30.40

------------------------------Saturation indices-------------------------------

  Phase               SI** log IAP   log K(298 K,   1 atm)

  Aragonite        -1.55     -9.88   -8.34  CaCO3
  Calcite          -1.44     -9.88   -8.45  CaCO3
  CH4(g)          -64.56    -67.36   -2.80  CH4
  CO2(g)           -2.28     -3.75   -1.47  CO2
  H2(g)           -22.05    -25.15   -3.10  H2
  H2O(g)           -1.50     -0.00    1.50  H2O
  O2(g)           -39.17    -42.06   -2.89  O2

**For a gas, SI = log10(fugacity). Fugacity = pressure * phi / 1 atm.
  For ideal gases, phi = 1.

Using solution 13.	
Using surface 13.	
Using kinetics 13.	

Kinetics 13.	

	Time:      0 seconds
	Time step: 72000 seconds

	Rate name       Delta Moles Total Moles   Reactant        Coefficient

	Add_Ra            0.000e+00   1.000e+00   [224Ra]                   1
	Decay_Ra          0.000e+00   1.000e+00   [224Ra]                   1

------------------------------Surface composition------------------------------

Diffuse Double Layer Surface-Complexation Model

Solid         
	  0.000e+00  Surface charge, eq
	  0.000e+00  sigma, C/m²
	  0.000e+00  psi, V
	 -0.000e+00  -F*psi/RT
	  1.000e+00  exp(-F*psi/RT)
	  1.000e+00  specific area, m²/g
	 1.000e+100  m² for  1.000e+100 g


Solid         
	 1.000e+100  moles
	                                   Mole                     Log
	Species               Moles    Fraction    Molality    Molality

	Solid            1.000e+100       1.000  1.000e+100     100.000

-----------------------------Solution composition------------------------------

	Elements           Molality       Moles

	C                 1.000e-03   1.000e-03
	Ca                4.115e-04   4.115e-04

----------------------------Description of solution----------------------------

                                       pH  =   7.000      Charge balance
                                       pe  =   4.000      Adjusted to redox equilibrium
      Specific Conductance (µS/cm,  25°C)  = 81
                          Density (g/cm³)  =   0.99710
                               Volume (L)  =   1.00298
                        Viscosity (mPa s)  =   0.89077
                        Activity of water  =   1.000
                 Ionic strength (mol/kgw)  =   1.234e-03
                       Mass of water (kg)  =   1.000e+00
                 Total alkalinity (eq/kg)  =   8.230e-04
                       Total CO2 (mol/kg)  =   1.000e-03
                         Temperature (°C)  =  25.00
                  Electrical balance (eq)  =   9.185e-21
 Percent error, 100*(Cat-|An|)/(Cat+|An|)  =   0.00
                               Iterations  =   0
                                  Total H  = 1.110133e+02
                                  Total O  = 5.550904e+01

----------------------------Distribution of species----------------------------

                                               Log       Log       Log    mole V
   Species          Molality    Activity  Molality  Activity     Gamma   cm³/mol

   OH-             1.053e-07   1.012e-07    -6.978    -6.995    -0.017     -4.10
   H+              1.038e-07   1.000e-07    -6.984    -7.000    -0.016      0.00
   H2O             5.551e+01   1.000e+00     1.744    -0.000     0.000     18.07
C(-4)         0.000e+00
   CH4             0.000e+00   0.000e+00   -67.360   -67.360     0.000     35.46
C(4)          1.000e-03
   HCO3-           8.217e-04   7.904e-04    -3.085    -3.102    -0.017     24.56
   CO2             1.777e-04   1.777e-04    -3.750    -3.750     0.000     34.79
   CO3-2           4.330e-07   3.707e-07    -6.364    -6.431    -0.067     -4.66
   CaCO3           2.191e-07   2.192e-07    -6.659    -6.659     0.000    -14.60
   (CO2)2          5.133e-10   5.134e-10    -9.290    -9.290     0.000     68.75
   CaHCO3+         2.535e-11   2.439e-11   -10.596   -10.613    -0.017      9.67
Ca            4.115e-04
   Ca+2            4.113e-04   3.520e-04    -3.386    -3.453    -0.068    -18.13
   CaCO3           2.191e-07   2.192e-07    -6.659    -6.659     0.000    -14.60
   CaOH+           6.077e-10   5.842e-10    -9.216    -9.233    -0.017     (0)  
   CaHCO3+         2.535e-11   2.439e-11   -10.596   -10.613    -0.017      9.67
H(0)          1.415e-25
   H2              7.077e-26   7.079e-26   -25.150   -25.150     0.000     14.99
O(0)          0.000e+00
   O2              0.000e+00   0.000e+00   -42.063   -42.063     0.000     30.40

------------------------------Saturation indices-------------------------------

  Phase               SI** log IAP   log K(298 K,   1 atm)

  Aragonite        -1.55     -9.88   -8.34  CaCO3
  Calcite          -1.44     -9.88   -8.45  CaCO3
  CH4(g)          -64.56    -67.36   -2.80  CH4
  CO2(g)           -2.28     -3.75   -1.47  CO2
  H2(g)           -22.05    -25.15   -3.10  H2
  H2O(g)           -1.50     -0.00    1.50  H2O
  O2(g)           -39.17    -42.06   -2.89  O2

**For a gas, SI = log10(fugacity). Fugacity = pressure * phi / 1 atm.
  For ideal gases, phi = 1.

Using solution 14.	
Using surface 14.	
Using kinetics 14.	

Kinetics 14.	

	Time:      0 seconds
	Time step: 72000 seconds

	Rate name       Delta Moles Total Moles   Reactant        Coefficient

	Add_Ra            0.000e+00   1.000e+00   [224Ra]                   1
	Decay_Ra          0.000e+00   1.000e+00   [224Ra]                   1

------------------------------Surface composition------------------------------

Diffuse Double Layer Surface-Complexation Model

Solid         
	  0.000e+00  Surface charge, eq
	  0.000e+00  sigma, C/m²
	  0.000e+00  psi, V
	 -0.000e+00  -F*psi/RT
	  1.000e+00  exp(-F*psi/RT)
	  1.000e+00  specific area, m²/g
	 1.000e+100  m² for  1.000e+100 g


Solid         
	 1.000e+100  moles
	                                   Mole                     Log
	Species               Moles    Fraction    Molality    Molality

	Solid            1.000e+100       1.000  1.000e+100     100.000

-----------------------------Solution composition------------------------------

	Elements           Molality       Moles

	C                 1.000e-03   1.000e-03
	Ca                4.115e-04   4.115e-04

----------------------------Description of solution----------------------------

                                       pH  =   7.000      Charge balance
                                       pe  =   4.000      Adjusted to redox equilibrium
      Specific Conductance (µS/cm,  25°C)  = 81
                          Density (g/cm³)  =   0.99710
                               Volume (L)  =   1.00298
                        Viscosity (mPa s)  =   0.89077
                        Activity of water  =   1.000
                 Ionic strength (mol/kgw)  =   1.234e-03
                       Mass of water (kg)  =   1.000e+00
                 Total alkalinity (eq/kg)  =   8.230e-04
                       Total CO2 (mol/kg)  =   1.000e-03
                         Temperature (°C)  =  25.00
                  Electrical balance (eq)  =   9.185e-21
 Percent error, 100*(Cat-|An|)/(Cat+|An|)  =   0.00
                               Iterations  =   0
                                  Total H  = 1.110133e+02
                                  Total O  = 5.550904e+01

----------------------------Distribution of species----------------------------

                                               Log       Log       Log    mole V
   Species          Molality    Activity  Molality  Activity     Gamma   cm³/mol

   OH-             1.053e-07   1.012e-07    -6.978    -6.995    -0.017     -4.10
   H+              1.038e-07   1.000e-07    -6.984    -7.000    -0.016      0.00
   H2O             5.551e+01   1.000e+00     1.744    -0.000     0.000     18.07
C(-4)         0.000e+00
   CH4             0.000e+00   0.000e+00   -67.360   -67.360     0.000     35.46
C(4)          1.000e-03
   HCO3-           8.217e-04   7.904e-04    -3.085    -3.102    -0.017     24.56
   CO2             1.777e-04   1.777e-04    -3.750    -3.750     0.000     34.79
   CO3-2           4.330e-07   3.707e-07    -6.364    -6.431    -0.067     -4.66
   CaCO3           2.191e-07   2.192e-07    -6.659    -6.659     0.000    -14.60
   (CO2)2          5.133e-10   5.134e-10    -9.290    -9.290     0.000     68.75
   CaHCO3+         2.535e-11   2.439e-11   -10.596   -10.613    -0.017      9.67
Ca            4.115e-04
   Ca+2            4.113e-04   3.520e-04    -3.386    -3.453    -0.068    -18.13
   CaCO3           2.191e-07   2.192e-07    -6.659    -6.659     0.000    -14.60
   CaOH+           6.077e-10   5.842e-10    -9.216    -9.233    -0.017     (0)  
   CaHCO3+         2.535e-11   2.439e-11   -10.596   -10.613    -0.017      9.67
H(0)          1.415e-25
   H2              7.077e-26   7.079e-26   -25.150   -25.150     0.000     14.99
O(0)          0.000e+00
   O2              0.000e+00   0.000e+00   -42.063   -42.063     0.000     30.40

------------------------------Saturation indices-------------------------------

  Phase               SI** log IAP   log K(298 K,   1 atm)

  Aragonite        -1.55     -9.88   -8.34  CaCO3
  Calcite          -1.44     -9.88   -8.45  CaCO3
  CH4(g)          -64.56    -67.36   -2.80  CH4
  CO2(g)           -2.28     -3.75   -1.47  CO2
  H2(g)           -22.05    -25.15   -3.10  H2
  H2O(g)           -1.50     -0.00    1.50  H2O
  O2(g)           -39.17    -42.06   -2.89  O2

**For a gas, SI = log10(fugacity). Fugacity = pressure * phi / 1 atm.
  For ideal gases, phi = 1.

Using solution 15.	
Using surface 15.	
Using kinetics 15.	

Kinetics 15.	

	Time:      0 seconds
	Time step: 72000 seconds

	Rate name       Delta Moles Total Moles   Reactant        Coefficient

	Add_Ra            0.000e+00   1.000e+00   [224Ra]                   1
	Decay_Ra          0.000e+00   1.000e+00   [224Ra]                   1

------------------------------Surface composition------------------------------

Diffuse Double Layer Surface-Complexation Model

Solid         
	  0.000e+00  Surface charge, eq
	  0.000e+00  sigma, C/m²
	  0.000e+00  psi, V
	 -0.000e+00  -F*psi/RT
	  1.000e+00  exp(-F*psi/RT)
	  1.000e+00  specific area, m²/g
	 1.000e+100  m² for  1.000e+100 g


Solid         
	 1.000e+100  moles
	                                   Mole                     Log
	Species               Moles    Fraction    Molality    Molality

	Solid            1.000e+100       1.000  1.000e+100     100.000

-----------------------------Solution composition------------------------------

	Elements           Molality       Moles

	C                 1.000e-03   1.000e-03
	Ca                4.115e-04   4.115e-04

----------------------------Description of solution----------------------------

                                       pH  =   7.000      Charge balance
                                       pe  =   4.000      Adjusted to redox equilibrium
      Specific Conductance (µS/cm,  25°C)  = 81
                          Density (g/cm³)  =   0.99710
                               Volume (L)  =   1.00298
                        Viscosity (mPa s)  =   0.89077
                        Activity of water  =   1.000
                 Ionic strength (mol/kgw)  =   1.234e-03
                       Mass of water (kg)  =   1.000e+00
                 Total alkalinity (eq/kg)  =   8.230e-04
                       Total CO2 (mol/kg)  =   1.000e-03
                         Temperature (°C)  =  25.00
                  Electrical balance (eq)  =   9.185e-21
 Percent error, 100*(Cat-|An|)/(Cat+|An|)  =   0.00
                               Iterations  =   0
                                  Total H  = 1.110133e+02
                                  Total O  = 5.550904e+01

----------------------------Distribution of species----------------------------

                                               Log       Log       Log    mole V
   Species          Molality    Activity  Molality  Activity     Gamma   cm³/mol

   OH-             1.053e-07   1.012e-07    -6.978    -6.995    -0.017     -4.10
   H+              1.038e-07   1.000e-07    -6.984    -7.000    -0.016      0.00
   H2O             5.551e+01   1.000e+00     1.744    -0.000     0.000     18.07
C(-4)         0.000e+00
   CH4             0.000e+00   0.000e+00   -67.360   -67.360     0.000     35.46
C(4)          1.000e-03
   HCO3-           8.217e-04   7.904e-04    -3.085    -3.102    -0.017     24.56
   CO2             1.777e-04   1.777e-04    -3.750    -3.750     0.000     34.79
   CO3-2           4.330e-07   3.707e-07    -6.364    -6.431    -0.067     -4.66
   CaCO3           2.191e-07   2.192e-07    -6.659    -6.659     0.000    -14.60
   (CO2)2          5.133e-10   5.134e-10    -9.290    -9.290     0.000     68.75
   CaHCO3+         2.535e-11   2.439e-11   -10.596   -10.613    -0.017      9.67
Ca            4.115e-04
   Ca+2            4.113e-04   3.520e-04    -3.386    -3.453    -0.068    -18.13
   CaCO3           2.191e-07   2.192e-07    -6.659    -6.659     0.000    -14.60
   CaOH+           6.077e-10   5.842e-10    -9.216    -9.233    -0.017     (0)  
   CaHCO3+         2.535e-11   2.439e-11   -10.596   -10.613    -0.017      9.67
H(0)          1.415e-25
   H2              7.077e-26   7.079e-26   -25.150   -25.150     0.000     14.99
O(0)          0.000e+00
   O2              0.000e+00   0.000e+00   -42.063   -42.063     0.000     30.40

------------------------------Saturation indices-------------------------------
[...]
  Calcite          -1.13     -9.58   -8.45  CaCO3
  CH4(g)         -131.78   -134.58   -2.80  CH4
  CO2(g)           -2.29     -3.76   -1.47  CO2
  H2(g)           -38.85    -41.95   -3.10  H2
  H2O(g)           -1.50     -0.00    1.50  H2O
  O2(g)            -5.56     -8.45   -2.89  O2

**For a gas, SI = log10(fugacity). Fugacity = pressure * phi / 1 atm.
  For ideal gases, phi = 1.

Using mix 43.	
Using surface 43.	
Using kinetics 43.	

Mixture 43.	

	  2.150e-01 Solution 42	Solution after simulation 5.                           
	  5.700e-01 Solution 43	Solution after simulation 5.                           
	  2.150e-01 Solution 44	Solution after simulation 5.                           

Kinetics 43.	

	Time:      720000 seconds
	Time step: 72000 seconds

	Rate name       Delta Moles Total Moles   Reactant        Coefficient

	Add_Ra           -8.333e-09   1.000e+00   [224Ra]                   1
	Decay_Ra          2.068e-08   1.000e+00   [224Ra]                   1

------------------------------Surface composition------------------------------

Diffuse Double Layer Surface-Complexation Model

Solid         
	  0.000e+00  Surface charge, eq
	  0.000e+00  sigma, C/m²
	  0.000e+00  psi, V
	 -0.000e+00  -F*psi/RT
	  1.000e+00  exp(-F*psi/RT)
	  1.000e+00  specific area, m²/g
	 1.000e+100  m² for  1.000e+100 g


Solid         
	 1.000e+100  moles
	                                   Mole                     Log
	Species               Moles    Fraction    Molality    Molality

	Solid            1.000e+100       1.000  1.000e+100     100.000
	Solid[224Ra]      1.222e-07       0.000   1.222e-07      -6.913

-----------------------------Solution composition------------------------------

	Elements           Molality       Moles

	C                 1.000e-03   1.000e-03
	Ca                9.109e-04   9.109e-04
	Cl                9.960e-04   9.960e-04
	[224Ra]           6.122e-09   6.122e-09

----------------------------Description of solution----------------------------

                                       pH  =   7.000      Charge balance
                                       pe  =  12.403      Adjusted to redox equilibrium
      Specific Conductance (µS/cm,  25°C)  = 207
                          Density (g/cm³)  =   0.99714
                               Volume (L)  =   1.00299
                        Viscosity (mPa s)  =   0.89107
                        Activity of water  =   1.000
                 Ionic strength (mol/kgw)  =   2.732e-03
                       Mass of water (kg)  =   1.000e+00
                 Total alkalinity (eq/kg)  =   8.258e-04
                       Total CO2 (mol/kg)  =   1.000e-03
                         Temperature (°C)  =  25.00
                           Pressure (atm)  =  1.00
                  Electrical balance (eq)  =  -3.898e-12
 Percent error, 100*(Cat-|An|)/(Cat+|An|)  =  -0.00
                               Iterations  =   9
                                  Total H  = 1.110133e+02
                                  Total O  = 5.550904e+01

----------------------------Distribution of species----------------------------

                                               Log       Log       Log    mole V
   Species          Molality    Activity  Molality  Activity     Gamma   cm³/mol

   OH-             1.072e-07   1.012e-07    -6.970    -6.995    -0.025     -4.09
   H+              1.055e-07   1.000e-07    -6.977    -7.000    -0.023      0.00
   H2O             5.551e+01   1.000e+00     1.744    -0.000     0.000     18.07
C(-4)         0.000e+00
   CH4             0.000e+00   0.000e+00  -134.587  -134.587     0.000     35.46
C(4)          1.000e-03
   HCO3-           8.240e-04   7.790e-04    -3.084    -3.108    -0.024     24.60
   CO2             1.751e-04   1.752e-04    -3.757    -3.757     0.000     34.79
   CO3-2           4.574e-07   3.653e-07    -6.340    -6.437    -0.098     -4.58
   CaCO3           4.459e-07   4.462e-07    -6.351    -6.351     0.000    -14.60
   (CO2)2          4.986e-10   4.988e-10    -9.302    -9.302     0.000     68.75
   CaHCO3+         5.249e-11   4.965e-11   -10.280   -10.304    -0.024      9.69
Ca            9.109e-04
   Ca+2            9.105e-04   7.270e-04    -3.041    -3.138    -0.098    -18.07
   CaCO3           4.459e-07   4.462e-07    -6.351    -6.351     0.000    -14.60
   CaOH+           1.278e-09   1.206e-09    -8.894    -8.919    -0.025     (0)  
   CaHCO3+         5.249e-11   4.965e-11   -10.280   -10.304    -0.024      9.69
Cl            9.960e-04
   Cl-             9.960e-04   9.402e-04    -3.002    -3.027    -0.025     18.09
   HCl             3.230e-11   3.239e-11   -10.491   -10.490     0.001     20.36
H(0)          0.000e+00
   H2              0.000e+00   0.000e+00   -41.955   -41.955     0.000     14.99
O(0)          7.053e-09
   O2              3.527e-09   3.529e-09    -8.453    -8.452     0.000     30.40
[224Ra]       6.122e-09
   [224Ra]         6.122e-09   6.126e-09    -8.213    -8.213     0.000     (0)  

------------------------------Saturation indices-------------------------------

  Phase               SI** log IAP   log K(298 K,   1 atm)

  Aragonite        -1.24     -9.58   -8.34  CaCO3
  Calcite          -1.13     -9.58   -8.45  CaCO3
  CH4(g)         -131.78   -134.59   -2.80  CH4
  CO2(g)           -2.29     -3.76   -1.47  CO2
  H2(g)           -38.86    -41.96   -3.10  H2
  H2O(g)           -1.50     -0.00    1.50  H2O
  O2(g)            -5.56     -8.45   -2.89  O2

**For a gas, SI = log10(fugacity). Fugacity = pressure * phi / 1 atm.
  For ideal gases, phi = 1.

Using mix 44.	
Using surface 44.	
Using kinetics 44.	

Mixture 44.	

	  2.150e-01 Solution 43	Solution after simulation 5.                           
	  5.700e-01 Solution 44	Solution after simulation 5.                           
	  2.150e-01 Solution 45	Solution after simulation 5.                           

Kinetics 44.	

	Time:      720000 seconds
	Time step: 72000 seconds

	Rate name       Delta Moles Total Moles   Reactant        Coefficient

	Add_Ra           -8.333e-09   1.000e+00   [224Ra]                   1
	Decay_Ra          9.569e-08   1.000e+00   [224Ra]                   1

------------------------------Surface composition------------------------------

Diffuse Double Layer Surface-Complexation Model

Solid         
	  0.000e+00  Surface charge, eq
	  0.000e+00  sigma, C/m²
	  0.000e+00  psi, V
	 -0.000e+00  -F*psi/RT
	  1.000e+00  exp(-F*psi/RT)
	  1.000e+00  specific area, m²/g
	 1.000e+100  m² for  1.000e+100 g


Solid         
	 1.000e+100  moles
	                                   Mole                     Log
	Species               Moles    Fraction    Molality    Molality

	Solid            1.000e+100       1.000  1.000e+100     100.000
	Solid[224Ra]      5.559e-07       0.000   5.559e-07      -6.255

-----------------------------Solution composition------------------------------

	Elements           Molality       Moles

	C                 1.000e-03   1.000e-03
	Ca                9.123e-04   9.123e-04
	Cl                9.988e-04   9.988e-04
	[224Ra]           2.784e-08   2.784e-08

----------------------------Description of solution----------------------------

                                       pH  =   7.000      Charge balance
                                       pe  =  12.401      Adjusted to redox equilibrium
      Specific Conductance (µS/cm,  25°C)  = 208
                          Density (g/cm³)  =   0.99714
                               Volume (L)  =   1.00299
                        Viscosity (mPa s)  =   0.89107
                        Activity of water  =   1.000
                 Ionic strength (mol/kgw)  =   2.736e-03
                       Mass of water (kg)  =   1.000e+00
                 Total alkalinity (eq/kg)  =   8.258e-04
                       Total CO2 (mol/kg)  =   1.000e-03
                         Temperature (°C)  =  25.00
                           Pressure (atm)  =  1.00
                  Electrical balance (eq)  =  -4.739e-12
 Percent error, 100*(Cat-|An|)/(Cat+|An|)  =  -0.00
                               Iterations  =  17
                                  Total H  = 1.110133e+02
                                  Total O  = 5.550904e+01

----------------------------Distribution of species----------------------------

                                               Log       Log       Log    mole V
   Species          Molality    Activity  Molality  Activity     Gamma   cm³/mol

   OH-             1.072e-07   1.012e-07    -6.970    -6.995    -0.025     -4.09
   H+              1.055e-07   1.000e-07    -6.977    -7.000    -0.023      0.00
   H2O             5.551e+01   1.000e+00     1.744    -0.000     0.000     18.07
C(-4)         0.000e+00
   CH4             0.000e+00   0.000e+00  -134.571  -134.571     0.000     35.46
C(4)          1.000e-03
   HCO3-           8.240e-04   7.790e-04    -3.084    -3.108    -0.024     24.60
   CO2             1.751e-04   1.752e-04    -3.757    -3.757     0.000     34.79
   CO3-2           4.574e-07   3.653e-07    -6.340    -6.437    -0.098     -4.58
   CaCO3           4.465e-07   4.468e-07    -6.350    -6.350     0.000    -14.60
   (CO2)2          4.986e-10   4.988e-10    -9.302    -9.302     0.000     68.75
   CaHCO3+         5.257e-11   4.972e-11   -10.279   -10.303    -0.024      9.69
Ca            9.123e-04
   Ca+2            9.119e-04   7.280e-04    -3.040    -3.138    -0.098    -18.07
   CaCO3           4.465e-07   4.468e-07    -6.350    -6.350     0.000    -14.60
   CaOH+           1.279e-09   1.208e-09    -8.893    -8.918    -0.025     (0)  
   CaHCO3+         5.257e-11   4.972e-11   -10.279   -10.303    -0.024      9.69
Cl            9.988e-04
   Cl-             9.988e-04   9.428e-04    -3.001    -3.026    -0.025     18.09
   HCl             3.239e-11   3.248e-11   -10.490   -10.488     0.001     20.36
H(0)          0.000e+00
   H2              0.000e+00   0.000e+00   -41.951   -41.951     0.000     14.99
O(0)          6.926e-09
   O2              3.463e-09   3.465e-09    -8.461    -8.460     0.000     30.40
[224Ra]       2.784e-08
   [224Ra]         2.784e-08   2.786e-08    -7.555    -7.555     0.000     (0)  

------------------------------Saturation indices-------------------------------

  Phase               SI** log IAP   log K(298 K,   1 atm)

  Aragonite        -1.24     -9.58   -8.34  CaCO3
  Calcite          -1.13     -9.58   -8.45  CaCO3
  CH4(g)         -131.77   -134.57   -2.80  CH4
  CO2(g)           -2.29     -3.76   -1.47  CO2
  H2(g)           -38.85    -41.95   -3.10  H2
  H2O(g)           -1.50     -0.00    1.50  H2O
  O2(g)            -5.57     -8.46   -2.89  O2

**For a gas, SI = log10(fugacity). Fugacity = pressure * phi / 1 atm.
  For ideal gases, phi = 1.

Using mix 45.	
Using surface 45.	
Using kinetics 45.	

Mixture 45.	

	  2.150e-01 Solution 44	Solution after simulation 5.                           
	  7.850e-01 Solution 45	Solution after simulation 5.                           
	  0.000e+00 Solution 46	Solution after simulation 5.                           

Kinetics 45.	

	Time:      720000 seconds
	Time step: 72000 seconds

	Rate name       Delta Moles Total Moles   Reactant        Coefficient

	Add_Ra           -8.333e-09   1.000e+00   [224Ra]                   1
	Decay_Ra          4.526e-07   1.000e+00   [224Ra]                   1

------------------------------Surface composition------------------------------

Diffuse Double Layer Surface-Complexation Model

Solid         
	  0.000e+00  Surface charge, eq
	  0.000e+00  sigma, C/m²
	  0.000e+00  psi, V
	 -0.000e+00  -F*psi/RT
	  1.000e+00  exp(-F*psi/RT)
	  1.000e+00  specific area, m²/g
	 1.000e+100  m² for  1.000e+100 g


Solid         
	 1.000e+100  moles
	                                   Mole                     Log
	Species               Moles    Fraction    Molality    Molality

	Solid            1.000e+100       1.000  1.000e+100     100.000
	Solid[224Ra]      2.594e-06       0.000   2.594e-06      -5.586

-----------------------------Solution composition------------------------------

	Elements           Molality       Moles

	C                 1.000e-03   1.000e-03
	Ca                9.128e-04   9.128e-04
	Cl                9.997e-04   9.997e-04
	[224Ra]           1.299e-07   1.299e-07

----------------------------Description of solution----------------------------

                                       pH  =   7.000      Charge balance
                                       pe  =  12.351      Adjusted to redox equilibrium
      Specific Conductance (µS/cm,  25°C)  = 208
                          Density (g/cm³)  =   0.99714
                               Volume (L)  =   1.00299
                        Viscosity (mPa s)  =   0.89107
                        Activity of water  =   1.000
                 Ionic strength (mol/kgw)  =   2.738e-03
                       Mass of water (kg)  =   1.000e+00
                 Total alkalinity (eq/kg)  =   8.258e-04
                       Total CO2 (mol/kg)  =   1.000e-03
                         Temperature (°C)  =  25.00
                  Electrical balance (eq)  =  -4.341e-13
 Percent error, 100*(Cat-|An|)/(Cat+|An|)  =  -0.00
                               Iterations  =  20
                                  Total H  = 1.110133e+02
                                  Total O  = 5.550904e+01

----------------------------Distribution of species----------------------------

                                               Log       Log       Log    mole V
   Species          Molality    Activity  Molality  Activity     Gamma   cm³/mol

   OH-             1.073e-07   1.012e-07    -6.970    -6.995    -0.025     -4.09
   H+              1.055e-07   1.000e-07    -6.977    -7.000    -0.023      0.00
   H2O             5.551e+01   1.000e+00     1.744    -0.000     0.000     18.07
C(-4)         0.000e+00
   CH4             0.000e+00   0.000e+00  -134.175  -134.175     0.000     35.46
C(4)          1.000e-03
   HCO3-           8.240e-04   7.790e-04    -3.084    -3.108    -0.024     24.60
   CO2             1.751e-04   1.752e-04    -3.757    -3.757     0.000     34.79
   CO3-2           4.575e-07   3.653e-07    -6.340    -6.437    -0.098     -4.58
   CaCO3           4.467e-07   4.470e-07    -6.350    -6.350     0.000    -14.60
   (CO2)2          4.986e-10   4.988e-10    -9.302    -9.302     0.000     68.75
   CaHCO3+         5.259e-11   4.974e-11   -10.279   -10.303    -0.024      9.69
Ca            9.128e-04
   Ca+2            9.123e-04   7.283e-04    -3.040    -3.138    -0.098    -18.07
   CaCO3           4.467e-07   4.470e-07    -6.350    -6.350     0.000    -14.60
   CaOH+           1.280e-09   1.209e-09    -8.893    -8.918    -0.025     (0)  
   CaHCO3+         5.259e-11   4.974e-11   -10.279   -10.303    -0.024      9.69
Cl            9.997e-04
   Cl-             9.997e-04   9.437e-04    -3.000    -3.025    -0.025     18.09
   HCl             3.242e-11   3.251e-11   -10.489   -10.488     0.001     20.36
H(0)          0.000e+00
   H2              0.000e+00   0.000e+00   -41.852   -41.852     0.000     14.99
O(0)          4.389e-09
   O2              2.195e-09   2.196e-09    -8.659    -8.658     0.000     30.40
[224Ra]       1.299e-07
   [224Ra]         1.299e-07   1.300e-07    -6.886    -6.886     0.000     (0)  

------------------------------Saturation indices-------------------------------

  Phase               SI** log IAP   log K(298 K,   1 atm)

  Aragonite        -1.24     -9.58   -8.34  CaCO3
  Calcite          -1.13     -9.58   -8.45  CaCO3
  CH4(g)         -131.37   -134.17   -2.80  CH4
  CO2(g)           -2.29     -3.76   -1.47  CO2
  H2(g)           -38.75    -41.85   -3.10  H2
  H2O(g)           -1.50     -0.00    1.50  H2O
  O2(g)            -5.77     -8.66   -2.89  O2

**For a gas, SI = log10(fugacity). Fugacity = pressure * phi / 1 atm.
  For ideal gases, phi = 1.

Using solution 46.	Solution after simulation 5.

-----------------------------Solution composition------------------------------

	Elements           Molality       Moles

	C                 1.000e-03   1.000e-03
	Ca                9.129e-04   9.129e-04
	Cl                1.000e-03   1.000e-03
	[224Ra]           7.000e-07   7.000e-07

----------------------------Description of solution----------------------------

                                       pH  =   7.000      Charge balance
                                       pe  =   4.000      Adjusted to redox equilibrium
      Specific Conductance (µS/cm,  25°C)  = 208
                          Density (g/cm³)  =   0.99715
                               Volume (L)  =   1.00299
                        Viscosity (mPa s)  =   0.89107
                        Activity of water  =   1.000
                 Ionic strength (mol/kgw)  =   2.738e-03
                       Mass of water (kg)  =   1.000e+00
                 Total alkalinity (eq/kg)  =   8.258e-04
                       Total CO2 (mol/kg)  =   1.000e-03
                         Temperature (°C)  =  25.00
                  Electrical balance (eq)  =   7.914e-17
 Percent error, 100*(Cat-|An|)/(Cat+|An|)  =   0.00
                               Iterations  =   0
                                  Total H  = 1.110133e+02
                                  Total O  = 5.550904e+01

----------------------------Distribution of species----------------------------

                                               Log       Log       Log    mole V
   Species          Molality    Activity  Molality  Activity     Gamma   cm³/mol

   OH-             1.073e-07   1.012e-07    -6.970    -6.995    -0.025     -4.09
   H+              1.055e-07   1.000e-07    -6.977    -7.000    -0.023      0.00
   H2O             5.551e+01   1.000e+00     1.744    -0.000     0.000     18.07
C(-4)         0.000e+00
   CH4             0.000e+00   0.000e+00   -67.367   -67.366     0.000     35.46
C(4)          1.000e-03
   HCO3-           8.240e-04   7.790e-04    -3.084    -3.108    -0.024     24.60
   CO2             1.751e-04   1.752e-04    -3.757    -3.757     0.000     34.79
   CO3-2           4.575e-07   3.653e-07    -6.340    -6.437    -0.098     -4.58
   CaCO3           4.467e-07   4.470e-07    -6.350    -6.350     0.000    -14.60
   (CO2)2          4.985e-10   4.988e-10    -9.302    -9.302     0.000     68.75
   CaHCO3+         5.260e-11   4.975e-11   -10.279   -10.303    -0.024      9.69
Ca            9.129e-04
   Ca+2            9.125e-04   7.284e-04    -3.040    -3.138    -0.098    -18.07
   CaCO3           4.467e-07   4.470e-07    -6.350    -6.350     0.000    -14.60
   CaOH+           1.280e-09   1.209e-09    -8.893    -8.918    -0.025     (0)  
   CaHCO3+         5.260e-11   4.975e-11   -10.279   -10.303    -0.024      9.69
Cl            1.000e-03
   Cl-             1.000e-03   9.439e-04    -3.000    -3.025    -0.025     18.09
   HCl             3.243e-11   3.252e-11   -10.489   -10.488     0.001     20.36
H(0)          1.415e-25
   H2              7.075e-26   7.079e-26   -25.150   -25.150     0.000     14.99
O(0)          0.000e+00
   O2              0.000e+00   0.000e+00   -42.063   -42.063     0.000     30.40
[224Ra]       7.000e-07
   [224Ra]         7.000e-07   7.004e-07    -6.155    -6.155     0.000     (0)  

------------------------------Saturation indices-------------------------------

  Phase               SI** log IAP   log K(298 K,   1 atm)

  Aragonite        -1.24     -9.57   -8.34  CaCO3
  Calcite          -1.13     -9.57   -8.45  CaCO3
  CH4(g)          -64.56    -67.37   -2.80  CH4
  CO2(g)           -2.29     -3.76   -1.47  CO2
  H2(g)           -22.05    -25.15   -3.10  H2
  H2O(g)           -1.50     -0.00    1.50  H2O
  O2(g)           -39.17    -42.06   -2.89  O2

**For a gas, SI = log10(fugacity). Fugacity = pressure * phi / 1 atm.
  For ideal gases, phi = 1.

------------------
End of simulation.
------------------

------------------------------------
Reading input data for simulation 6.
------------------------------------

