WARNING: Database file from DATABASE keyword is used; command line argument ignored.
   Input file: lk_phase
  Output file: lk_phase.out
Database file: ../database/phreeqc.dat

------------------
Reading data base.
------------------

	SOLUTION_MASTER_SPECIES
	SOLUTION_SPECIES
	PHASES
	GAS_BINARY_PARAMETERS
	EXCHANGE_MASTER_SPECIES
	EXCHANGE_SPECIES
	SURFACE_MASTER_SPECIES
	SURFACE_SPECIES
	MEAN_GAMMAS
	RATES
	END
------------------------------------
Reading input data for simulation 1.
------------------------------------

	database ../database/phreeqc.dat
	SELECTED_OUTPUT 101
	    file                 lk_phase_101.sel
	USER_PUNCH 101
	    headings Mu SC
	    start
	10 PUNCH STR_F$(MU, 20, 12)
	20 PUNCH STR_F$(SC, 20, 10)
	    end
	TITLE Solubility calcite
	SOLUTION
	REACTION_TEMPERATURE
	0 25 60 100 150 200
	EQUILIBRIUM_PHASES
	calcite
	USER_GRAPH 1
	-headings legend P_sat
	-axis_scale x_axis 0 200
	-connect_simulation false
	-start
	10 GRAPH_X TC
	20 GRAPH_Y LK_PHASE("Calcite")
	-end
	END
-----
TITLE
-----

 Solubility calcite

-------------------------------------------
Beginning of initial solution calculations.
-------------------------------------------

Initial solution 1.	

-----------------------------Solution composition------------------------------

	Elements           Molality       Moles

	Pure water     

----------------------------Description of solution----------------------------

                                       pH  =   7.000    
                                       pe  =   4.000    
      Specific Conductance (µS/cm,  25°C)  = 0
                          Density (g/cm³)  =   0.99704
                               Volume (L)  =   1.00297
                        Viscosity (mPa s)  =   0.89002
                        Activity of water  =   1.000
                 Ionic strength (mol/kgw)  =   1.007e-07
                       Mass of water (kg)  =   1.000e+00
                 Total alkalinity (eq/kg)  =   1.217e-09
                         Temperature (°C)  =  25.00
                  Electrical balance (eq)  =  -1.217e-09
 Percent error, 100*(Cat-|An|)/(Cat+|An|)  =  -0.60
                               Iterations  =   0
                                  Total H  = 1.110124e+02
                                  Total O  = 5.550622e+01

----------------------------Distribution of species----------------------------

                                               Log       Log       Log    mole V
   Species          Molality    Activity  Molality  Activity     Gamma   cm³/mol

   OH-             1.013e-07   1.012e-07    -6.995    -6.995    -0.000     -4.14
   H+              1.001e-07   1.000e-07    -7.000    -7.000    -0.000      0.00
   H2O             5.551e+01   1.000e+00     1.744     0.000     0.000     18.07
H(0)          1.416e-25
   H2              7.079e-26   7.079e-26   -25.150   -25.150     0.000     14.99
O(0)          0.000e+00
   O2              0.000e+00   0.000e+00   -42.063   -42.063     0.000     30.40

------------------------------Saturation indices-------------------------------

  Phase               SI** log IAP   log K(298 K,   1 atm)

  H2(g)           -22.05    -25.15   -3.10  H2
  H2O(g)           -1.50      0.00    1.50  H2O
  O2(g)           -39.17    -42.06   -2.89  O2

**For a gas, SI = log10(fugacity). Fugacity = pressure * phi / 1 atm.
  For ideal gases, phi = 1.

-----------------------------------------
Beginning of batch-reaction calculations.
-----------------------------------------

Reaction step 1.

Using solution 1.	
Using pure phase assemblage 1.	
Using temperature 1.	

-------------------------------Phase assemblage--------------------------------

                                                      Moles in assemblage
Phase               SI  log IAP  log K(T, P)   Initial       Final       Delta

Calcite           0.00    -8.30     -8.30    1.000e+01   1.000e+01  -1.137e-04

-----------------------------Solution composition------------------------------

	Elements           Molality       Moles

	C                 1.137e-04   1.137e-04
	Ca                1.137e-04   1.137e-04

----------------------------Description of solution----------------------------

                                       pH  =  10.634      Charge balance
                                       pe  =   9.392      Adjusted to redox equilibrium
      Specific Conductance (µS/cm,   0°C)  = 15
                          Density (g/cm³)  =   0.99985
                               Volume (L)  =   1.00016
                        Viscosity (mPa s)  =   1.79230
                        Activity of water  =   1.000
                 Ionic strength (mol/kgw)  =   3.747e-04
                       Mass of water (kg)  =   1.000e+00
                 Total alkalinity (eq/kg)  =   2.274e-04
                       Total CO2 (mol/kg)  =   1.137e-04
                         Temperature (°C)  =   0.00
                  Electrical balance (eq)  =  -1.217e-09
 Percent error, 100*(Cat-|An|)/(Cat+|An|)  =  -0.00
                               Iterations  =  19
                                  Total H  = 1.110124e+02
                                  Total O  = 5.550656e+01

----------------------------Distribution of species----------------------------

                                               Log       Log       Log    mole V
   Species          Molality    Activity  Molality  Activity     Gamma   cm³/mol

   OH-             5.070e-05   4.962e-05    -4.295    -4.304    -0.009     -6.18
   H+              2.370e-11   2.322e-11   -10.625   -10.634    -0.009      0.00
   H2O             5.551e+01   1.000e+00     1.744    -0.000     0.000     18.02
C(-4)         0.000e+00
   CH4             0.000e+00   0.000e+00  -140.602  -140.602     0.000     32.63
C(4)          1.137e-04
   CO3-2           5.548e-05   5.098e-05    -4.256    -4.293    -0.037     -9.31
   HCO3-           5.140e-05   5.032e-05    -4.289    -4.298    -0.009     21.10
   CaCO3           6.792e-06   6.792e-06    -5.168    -5.168     0.000    -14.71
   CO2             4.428e-09   4.428e-09    -8.354    -8.354     0.000     33.49
   CaHCO3+         8.943e-16   8.757e-16   -15.048   -15.058    -0.009      8.12
   (CO2)2          6.549e-20   6.550e-20   -19.184   -19.184     0.000     66.14
Ca            1.137e-04
   Ca+2            1.062e-04   9.755e-05    -3.974    -4.011    -0.037    -18.92
   CaCO3           6.792e-06   6.792e-06    -5.168    -5.168     0.000    -14.71
   CaOH+           7.123e-07   6.972e-07    -6.147    -6.157    -0.009     (0)  
   CaHCO3+         8.943e-16   8.757e-16   -15.048   -15.058    -0.009      8.12
H(0)          0.000e+00
   H2              0.000e+00   0.000e+00   -43.084   -43.084     0.000     12.27
O(0)          9.926e-16
   O2              4.963e-16   4.964e-16   -15.304   -15.304     0.000     27.49

------------------------------Saturation indices-------------------------------

  Phase               SI** log IAP   log K(273 K,   1 atm)

  Aragonite        -0.09     -8.30   -8.22  CaCO3
  Calcite           0.00     -8.30   -8.30  CaCO3
  CH4(g)         -138.13   -140.60   -2.47  CH4
  CO2(g)           -7.25     -8.35   -1.11  CO2
  H2(g)           -40.06    -43.08   -3.03  H2
  H2O(g)           -2.21     -0.00    2.21  H2O
  O2(g)           -12.65    -15.30   -2.66  O2

**For a gas, SI = log10(fugacity). Fugacity = pressure * phi / 1 atm.
  For ideal gases, phi = 1.

Reaction step 2.

Using solution 1.	
Using pure phase assemblage 1.	
Using temperature 1.	

-------------------------------Phase assemblage--------------------------------

                                                      Moles in assemblage
Phase               SI  log IAP  log K(T, P)   Initial       Final       Delta

Calcite           0.00    -8.45     -8.45    1.000e+01   1.000e+01  -1.269e-04

-----------------------------Solution composition------------------------------

	Elements           Molality       Moles

	C                 1.269e-04   1.269e-04
	Ca                1.269e-04   1.269e-04

----------------------------Description of solution----------------------------

                                       pH  =   9.916      Charge balance
                                       pe  =   7.773      Adjusted to redox equilibrium
      Specific Conductance (µS/cm,  25°C)  = 37
                          Density (g/cm³)  =   0.99706
                               Volume (L)  =   1.00296
                        Viscosity (mPa s)  =   0.89034
                        Activity of water  =   1.000
                 Ionic strength (mol/kgw)  =   3.978e-04
                       Mass of water (kg)  =   1.000e+00
                 Total alkalinity (eq/kg)  =   2.538e-04
                       Total CO2 (mol/kg)  =   1.269e-04
                         Temperature (°C)  =  25.00
                  Electrical balance (eq)  =  -1.217e-09
 Percent error, 100*(Cat-|An|)/(Cat+|An|)  =  -0.00
                               Iterations  =  18
                                  Total H  = 1.110124e+02
                                  Total O  = 5.550660e+01

----------------------------Distribution of species----------------------------

                                               Log       Log       Log    mole V
   Species          Molality    Activity  Molality  Activity     Gamma   cm³/mol

   OH-             8.539e-05   8.346e-05    -4.069    -4.079    -0.010     -4.12
   H+              1.240e-10   1.213e-10    -9.907    -9.916    -0.010      0.00
   H2O             5.551e+01   1.000e+00     1.744    -0.000     0.000     18.07
C(-4)         0.000e+00
   CH4             0.000e+00   0.000e+00  -124.769  -124.769     0.000     35.46
C(4)          1.269e-04
   HCO3-           8.550e-05   8.359e-05    -4.068    -4.078    -0.010     24.54
   CO3-2           3.538e-05   3.232e-05    -4.451    -4.490    -0.039     -4.73
   CaCO3           5.988e-06   5.989e-06    -5.223    -5.223     0.000    -14.60
   CO2             2.279e-08   2.279e-08    -7.642    -7.642     0.000     34.79
   CaHCO3+         8.267e-13   8.083e-13   -12.083   -12.092    -0.010      9.66
   (CO2)2          8.445e-18   8.445e-18   -17.073   -17.073     0.000     68.75
Ca            1.269e-04
   Ca+2            1.208e-04   1.103e-04    -3.918    -3.957    -0.039    -18.18
   CaCO3           5.988e-06   5.989e-06    -5.223    -5.223     0.000    -14.60
   CaOH+           1.544e-07   1.509e-07    -6.811    -6.821    -0.010     (0)  
   CaHCO3+         8.267e-13   8.083e-13   -12.083   -12.092    -0.010      9.66
H(0)          5.913e-39
   H2              2.957e-39   2.957e-39   -38.529   -38.529     0.000     14.99
O(0)          9.926e-16
   O2              4.963e-16   4.963e-16   -15.304   -15.304     0.000     30.40

------------------------------Saturation indices-------------------------------

  Phase               SI** log IAP   log K(298 K,   1 atm)

  Aragonite        -0.11     -8.45   -8.34  CaCO3
  Calcite           0.00     -8.45   -8.45  CaCO3
  CH4(g)         -121.97   -124.77   -2.80  CH4
  CO2(g)           -6.17     -7.64   -1.47  CO2
  H2(g)           -35.43    -38.53   -3.10  H2
  H2O(g)           -1.50     -0.00    1.50  H2O
  O2(g)           -12.41    -15.30   -2.89  O2

**For a gas, SI = log10(fugacity). Fugacity = pressure * phi / 1 atm.
  For ideal gases, phi = 1.

Reaction step 3.

Using solution 1.	
Using pure phase assemblage 1.	
Using temperature 1.	

-------------------------------Phase assemblage--------------------------------

                                                      Moles in assemblage
Phase               SI  log IAP  log K(T, P)   Initial       Final       Delta

Calcite           0.00    -8.80     -8.80    1.000e+01   1.000e+01  -1.513e-04

-----------------------------Solution composition------------------------------

	Elements           Molality       Moles

	C                 1.513e-04   1.513e-04
	Ca                1.513e-04   1.513e-04

----------------------------Description of solution----------------------------

                                       pH  =   9.121      Charge balance
                                       pe  =   5.947      Adjusted to redox equilibrium
      Specific Conductance (µS/cm,  60°C)  = 83
                          Density (g/cm³)  =   0.98321
                               Volume (L)  =   1.01710
                        Viscosity (mPa s)  =   0.46624
                        Activity of water  =   1.000
                 Ionic strength (mol/kgw)  =   4.461e-04
                       Mass of water (kg)  =   1.000e+00
                 Total alkalinity (eq/kg)  =   3.026e-04
                       Total CO2 (mol/kg)  =   1.513e-04
                         Temperature (°C)  =  60.00
                  Electrical balance (eq)  =  -1.217e-09
 Percent error, 100*(Cat-|An|)/(Cat+|An|)  =  -0.00
                               Iterations  =  15
                                  Total H  = 1.110124e+02
                                  Total O  = 5.550667e+01

----------------------------Distribution of species----------------------------

                                               Log       Log       Log    mole V
   Species          Molality    Activity  Molality  Activity     Gamma   cm³/mol

   OH-             1.310e-04   1.277e-04    -3.883    -3.894    -0.011     -3.97
   H+              7.753e-10   7.562e-10    -9.111    -9.121    -0.011      0.00
   H2O             5.551e+01   1.000e+00     1.744    -0.000     0.000     18.32
C(-4)         0.000e+00
   CH4             0.000e+00   0.000e+00  -107.335  -107.335     0.000     38.02
C(4)          1.513e-04
   HCO3-           1.307e-04   1.274e-04    -3.884    -3.895    -0.011     25.59
   CO3-2           1.340e-05   1.210e-05    -4.873    -4.917    -0.044     -4.20
   CaCO3           7.037e-06   7.038e-06    -5.153    -5.153     0.000    -14.51
   CO2             1.879e-07   1.879e-07    -6.726    -6.726     0.000     36.49
   CaHCO3+         6.930e-10   6.756e-10    -9.159    -9.170    -0.011     10.41
   (CO2)2          2.024e-15   2.024e-15   -14.694   -14.694     0.000     72.14
Ca            1.513e-04
   Ca+2            1.442e-04   1.302e-04    -3.841    -3.885    -0.044    -18.43
   CaCO3           7.037e-06   7.038e-06    -5.153    -5.153     0.000    -14.51
   CaOH+           2.932e-08   2.857e-08    -7.533    -7.544    -0.011     (0)  
   CaHCO3+         6.930e-10   6.756e-10    -9.159    -9.170    -0.011     10.41
H(0)          7.570e-34
   H2              3.785e-34   3.786e-34   -33.422   -33.422     0.000     16.86
O(0)          9.927e-16
   O2              4.963e-16   4.964e-16   -15.304   -15.304     0.000     32.38

------------------------------Saturation indices-------------------------------

  Phase               SI** log IAP   log K(333 K,   1 atm)

  Aragonite        -0.17     -8.80   -8.64  CaCO3
  Calcite           0.00     -8.80   -8.80  CaCO3
  CH4(g)         -104.34   -107.34   -2.99  CH4
  CO2(g)           -4.94     -6.73   -1.78  CO2
  H2(g)           -30.29    -33.42   -3.13  H2
  H2O(g)           -0.71     -0.00    0.71  H2O
  O2(g)           -12.24    -15.30   -3.06  O2

**For a gas, SI = log10(fugacity). Fugacity = pressure * phi / 1 atm.
  For ideal gases, phi = 1.

Reaction step 4.

Using solution 1.	
Using pure phase assemblage 1.	
Using temperature 1.	

-------------------------------Phase assemblage--------------------------------

                                                      Moles in assemblage
Phase               SI  log IAP  log K(T, P)   Initial       Final       Delta

Calcite           0.00    -9.39     -9.39    1.000e+01   1.000e+01  -1.678e-04

-----------------------------Solution composition------------------------------

	Elements           Molality       Moles

	C                 1.678e-04   1.678e-04
	Ca                1.678e-04   1.678e-04

----------------------------Description of solution----------------------------

                                       pH  =   8.430      Charge balance
                                       pe  =   4.425      Adjusted to redox equilibrium
      Specific Conductance (µS/cm, 100°C)  = 142
                          Density (g/cm³)  =   0.95837
                               Volume (L)  =   1.04346
                        Viscosity (mPa s)  =   0.28175
                        Activity of water  =   1.000
                 Ionic strength (mol/kgw)  =   4.882e-04
                       Mass of water (kg)  =   1.000e+00
                 Total alkalinity (eq/kg)  =   3.356e-04
                       Total CO2 (mol/kg)  =   1.678e-04
                         Temperature (°C)  = 100.00
                  Electrical balance (eq)  =  -1.217e-09
 Percent error, 100*(Cat-|An|)/(Cat+|An|)  =  -0.00
                               Iterations  =  14
                                  Total H  = 1.110124e+02
                                  Total O  = 5.550672e+01

----------------------------Distribution of species----------------------------

                                               Log       Log       Log    mole V
   Species          Molality    Activity  Molality  Activity     Gamma   cm³/mol

   OH-             1.600e-04   1.553e-04    -3.796    -3.809    -0.013     -5.91
   H+              3.827e-09   3.720e-09    -8.417    -8.430    -0.012      0.00
   H2O             5.551e+01   1.000e+00     1.744    -0.000     0.000     18.80
C(-4)         0.000e+00
   CH4             0.000e+00   0.000e+00   -93.161   -93.161     0.000     41.06
C(4)          1.678e-04
   HCO3-           1.569e-04   1.524e-04    -3.804    -3.817    -0.013     24.26
   CaCO3           6.081e-06   6.082e-06    -5.216    -5.216     0.000    -14.43
   CO3-2           3.222e-06   2.865e-06    -5.492    -5.543    -0.051     -8.09
   CO2             1.513e-06   1.514e-06    -5.820    -5.820     0.000     39.13
   CaHCO3+         7.626e-08   7.407e-08    -7.118    -7.130    -0.013     10.50
   (CO2)2          2.039e-13   2.040e-13   -12.691   -12.690     0.000     77.42
Ca            1.678e-04
   Ca+2            1.616e-04   1.437e-04    -3.791    -3.843    -0.051    -19.86
   CaCO3           6.081e-06   6.082e-06    -5.216    -5.216     0.000    -14.43
   CaHCO3+         7.626e-08   7.407e-08    -7.118    -7.130    -0.013     10.50
   CaOH+           6.605e-09   6.412e-09    -8.180    -8.193    -0.013     (0)  
H(0)          1.522e-29
   H2              7.612e-30   7.613e-30   -29.119   -29.118     0.000     18.32
O(0)          1.429e-15
   O2              7.143e-16   7.143e-16   -15.146   -15.146     0.000     33.90

------------------------------Saturation indices-------------------------------

  Phase               SI** log IAP   log K(373 K,   1 atm)

  Aragonite        -0.22     -9.39   -9.17  CaCO3
  Calcite           0.00     -9.39   -9.39  CaCO3
  CH4(g)          -90.16    -93.16   -3.00  CH4
  CO2(g)           -3.84     -5.82   -1.98  CO2
  H2(g)           -26.03    -29.12   -3.09  H2
  H2O(g)           -0.01     -0.00    0.00  H2O
  O2(g)           -12.03    -15.15   -3.11  O2

**For a gas, SI = log10(fugacity). Fugacity = pressure * phi / 1 atm.
  For ideal gases, phi = 1.

Reaction step 5.

Using solution 1.	
Using pure phase assemblage 1.	
Using temperature 1.	

-------------------------------Phase assemblage--------------------------------

                                                      Moles in assemblage
Phase               SI  log IAP  log K(T, P)   Initial       Final       Delta

Calcite          -0.00   -10.32    -10.32    1.000e+01   1.000e+01  -1.522e-04

-----------------------------Solution composition------------------------------

	Elements           Molality       Moles

	C                 1.522e-04   1.522e-04
	Ca                1.522e-04   1.522e-04

----------------------------Description of solution----------------------------

                                       pH  =   7.822      Charge balance
                                       pe  =   3.048      Adjusted to redox equilibrium
      Specific Conductance (µS/cm, 150°C)  = 180
                          Density (g/cm³)  =   0.91703
                               Volume (L)  =   1.09050
                        Viscosity (mPa s)  =   0.18274
                        Activity of water  =   1.000
                 Ionic strength (mol/kgw)  =   4.508e-04
                       Mass of water (kg)  =   1.000e+00
                 Total alkalinity (eq/kg)  =   3.045e-04
                       Total CO2 (mol/kg)  =   1.522e-04
                         Temperature (°C)  = 150.00
                           Pressure (atm)  =  4.70
                  Electrical balance (eq)  =  -1.217e-09
 Percent error, 100*(Cat-|An|)/(Cat+|An|)  =  -0.00
                               Iterations  =  12
                                  Total H  = 1.110124e+02
                                  Total O  = 5.550667e+01

----------------------------Distribution of species----------------------------

                                               Log       Log       Log    mole V
   Species          Molality    Activity  Molality  Activity     Gamma   cm³/mol

   OH-             1.621e-04   1.569e-04    -3.790    -3.804    -0.014    -12.03
   H+              1.556e-08   1.507e-08    -7.808    -7.822    -0.014      0.00
   H2O             5.551e+01   1.000e+00     1.744    -0.000     0.000     19.65
C(-4)         0.000e+00
   CH4             0.000e+00   0.000e+00   -81.191   -81.191     0.000     46.91
C(4)          1.522e-04
   HCO3-           1.376e-04   1.332e-04    -3.861    -3.875    -0.014     18.89
   CO2             1.175e-05   1.175e-05    -4.930    -4.930     0.000     44.90
   CaCO3           1.451e-06   1.451e-06    -5.838    -5.838     0.000    -14.28
   CaHCO3+         1.024e-06   9.911e-07    -5.990    -6.004    -0.014      9.81
   CO3-2           4.144e-07   3.640e-07    -6.383    -6.439    -0.056    -20.49
   (CO2)2          7.419e-12   7.420e-12   -11.130   -11.130     0.000     88.96
Ca            1.522e-04
   Ca+2            1.498e-04   1.315e-04    -3.825    -3.881    -0.056    -23.85
   CaCO3           1.451e-06   1.451e-06    -5.838    -5.838     0.000    -14.28
   CaHCO3+         1.024e-06   9.911e-07    -5.990    -6.004    -0.014      9.81
   CaOH+           1.496e-09   1.447e-09    -8.825    -8.839    -0.014     (0)  
H(0)          1.071e-25
   H2              5.357e-26   5.358e-26   -25.271   -25.271     0.000     20.31
O(0)          9.926e-16
   O2              4.963e-16   4.963e-16   -15.304   -15.304     0.000     35.91

------------------------------Saturation indices-------------------------------

  Phase               SI** log IAP   log K(423 K,   5 atm)

  Aragonite        -0.25    -10.32  -10.07  CaCO3
  Calcite          -0.00    -10.32  -10.32  CaCO3
  CH4(g)          -78.29    -81.19   -2.90  CH4
  CO2(g)           -2.86     -4.93   -2.07  CO2
  H2(g)           -22.32    -25.27   -2.95  H2
  H2O(g)            0.66     -0.00   -0.66  H2O
  O2(g)           -12.26    -15.30   -3.04  O2

**For a gas, SI = log10(fugacity). Fugacity = pressure * phi / 1 atm.
  For ideal gases, phi = 1.

Reaction step 6.

Using solution 1.	
Using pure phase assemblage 1.	
Using temperature 1.	

-------------------------------Phase assemblage--------------------------------

                                                      Moles in assemblage
Phase               SI  log IAP  log K(T, P)   Initial       Final       Delta

Calcite          -0.00   -11.43    -11.43    1.000e+01   1.000e+01  -1.152e-04

-----------------------------Solution composition------------------------------

	Elements           Molality       Moles

	C                 1.152e-04   1.152e-04
	Ca                1.152e-04   1.152e-04

----------------------------Description of solution----------------------------

                                       pH  =   7.486      Charge balance
                                       pe  =   2.780      Adjusted to redox equilibrium
      Specific Conductance (µS/cm, 200°C)  = 166
                          Density (g/cm³)  =   0.86469
                               Volume (L)  =   1.15650
                        Viscosity (mPa s)  =   0.13478
                        Activity of water  =   1.000
                 Ionic strength (mol/kgw)  =   3.438e-04
                       Mass of water (kg)  =   1.000e+00
                 Total alkalinity (eq/kg)  =   2.304e-04
                       Total CO2 (mol/kg)  =   1.152e-04
                         Temperature (°C)  = 200.00
                           Pressure (atm)  = 15.38
                  Electrical balance (eq)  =  -1.217e-09
 Percent error, 100*(Cat-|An|)/(Cat+|An|)  =  -0.00
                               Iterations  =  12
                                  Total H  = 1.110124e+02
                                  Total O  = 5.550656e+01

----------------------------Distribution of species----------------------------

                                               Log       Log       Log    mole V
   Species          Molality    Activity  Molality  Activity     Gamma   cm³/mol

   OH-             1.545e-04   1.494e-04    -3.811    -3.826    -0.015    -26.18
   H+              3.377e-08   3.268e-08    -7.471    -7.486    -0.014      0.00
   H2O             5.551e+01   1.000e+00     1.744    -0.000     0.000     20.84
C(-4)         0.000e+00
   CH4             0.000e+00   0.000e+00   -80.029   -80.029     0.000     58.68
C(4)          1.152e-04
   HCO3-           7.488e-05   7.242e-05    -4.126    -4.140    -0.015      5.93
   CO2             3.936e-05   3.936e-05    -4.405    -4.405     0.000     57.02
   CaHCO3+         8.583e-07   8.302e-07    -6.066    -6.081    -0.014      7.74
   CaCO3           5.862e-08   5.863e-08    -7.232    -7.232     0.000    -13.98
   CO3-2           4.273e-08   3.738e-08    -7.369    -7.427    -0.058    -49.22
   (CO2)2          2.199e-11   2.199e-11   -10.658   -10.658     0.000    113.20
Ca            1.152e-04
   Ca+2            1.143e-04   9.996e-05    -3.942    -4.000    -0.058    -32.87
   CaHCO3+         8.583e-07   8.302e-07    -6.066    -6.081    -0.014      7.74
   CaCO3           5.862e-08   5.863e-08    -7.232    -7.232     0.000    -13.98
   CaOH+           5.227e-10   5.053e-10    -9.282    -9.296    -0.015     (0)  
H(0)          1.376e-24
   H2              6.881e-25   6.882e-25   -24.162   -24.162     0.000     23.69
O(0)          2.137e-13
   O2              1.068e-13   1.069e-13   -12.971   -12.971     0.000     39.26

------------------------------Saturation indices-------------------------------

  Phase               SI** log IAP   log K(473 K,  15 atm)

  Aragonite        -0.22    -11.43  -11.21  CaCO3
  Calcite          -0.00    -11.43  -11.43  CaCO3
  CH4(g)          -77.27    -80.03   -2.75  CH4
  CO2(g)           -2.34     -4.40   -2.06  CO2
  H2(g)           -21.40    -24.16   -2.76  H2
  H2O(g)            1.16     -0.00   -1.16  H2O
  O2(g)           -10.10    -12.97   -2.87  O2

**For a gas, SI = log10(fugacity). Fugacity = pressure * phi / 1 atm.
  For ideal gases, phi = 1.

------------------
End of simulation.
------------------

------------------------------------
Reading input data for simulation 2.
------------------------------------

	SOLUTION 2
	user_print
	10 PRINT LK_PHASE("Calcite")
	15 PRINT LA("Ca+2") + LA("CO3-2") - SI("Calcite")
	20 PRINT LK_SPECIES("HCO3-")
	30 PRINT LA("HCO3-") - LA("H+") - LA("CO3-2") 
	USE REACTION_TEMPERATURE
WARNING: No number given, 1 assumed.
	REACTION_PRESSURE
	500
	EQUILIBRIUM_PHASES
	calcite
	USER_GRAPH 1
	-headings legend 500_atm
	END
-------------------------------------------
Beginning of initial solution calculations.
-------------------------------------------

Initial solution 2.	

----------------------------------User print-----------------------------------

 -8.4479e+00 
 -9.9990e+01 
  1.0329e+01 
  6.9999e+00 

-----------------------------Solution composition------------------------------

	Elements           Molality       Moles

	Pure water     

----------------------------Description of solution----------------------------

                                       pH  =   7.000    
                                       pe  =   4.000    
      Specific Conductance (µS/cm,  25°C)  = 0
                          Density (g/cm³)  =   0.99704
                               Volume (L)  =   1.00297
                        Viscosity (mPa s)  =   0.89002
                        Activity of water  =   1.000
                 Ionic strength (mol/kgw)  =   1.007e-07
                       Mass of water (kg)  =   1.000e+00
                 Total alkalinity (eq/kg)  =   1.217e-09
                         Temperature (°C)  =  25.00
                  Electrical balance (eq)  =  -1.217e-09
 Percent error, 100*(Cat-|An|)/(Cat+|An|)  =  -0.60
                               Iterations  =   0
                                  Total H  = 1.110124e+02
                                  Total O  = 5.550622e+01

----------------------------Distribution of species----------------------------

                                               Log       Log       Log    mole V
   Species          Molality    Activity  Molality  Activity     Gamma   cm³/mol

   OH-             1.013e-07   1.012e-07    -6.995    -6.995    -0.000     -4.14
   H+              1.001e-07   1.000e-07    -7.000    -7.000    -0.000      0.00
   H2O             5.551e+01   1.000e+00     1.744     0.000     0.000     18.07
H(0)          1.416e-25
   H2              7.079e-26   7.079e-26   -25.150   -25.150     0.000     14.99
O(0)          0.000e+00
   O2              0.000e+00   0.000e+00   -42.063   -42.063     0.000     30.40

------------------------------Saturation indices-------------------------------

  Phase               SI** log IAP   log K(298 K,   1 atm)

  H2(g)           -22.05    -25.15   -3.10  H2
  H2O(g)           -1.50      0.00    1.50  H2O
  O2(g)           -39.17    -42.06   -2.89  O2

**For a gas, SI = log10(fugacity). Fugacity = pressure * phi / 1 atm.
  For ideal gases, phi = 1.

-----------------------------------------
Beginning of batch-reaction calculations.
-----------------------------------------

Reaction step 1.

Using solution 2.	
Using pure phase assemblage 1.	
Using temperature 1.	
Using pressure 1.	

----------------------------------User print-----------------------------------

 -7.7494e+00 
 -7.7494e+00 
  1.0361e+01 
  1.0361e+01 

-------------------------------Phase assemblage--------------------------------

                                                      Moles in assemblage
Phase               SI  log IAP  log K(T, P)   Initial       Final       Delta

Calcite           0.00    -7.75     -7.75    1.000e+01   1.000e+01  -2.065e-04

-----------------------------Solution composition------------------------------

	Elements           Molality       Moles

	C                 2.065e-04   2.065e-04
	Ca                2.065e-04   2.065e-04

----------------------------Description of solution----------------------------

                                       pH  =  10.576      Charge balance
                                       pe  =   9.431      Adjusted to redox equilibrium
      Specific Conductance (µS/cm,   0°C)  = 28
                          Density (g/cm³)  =   1.02416
                               Volume (L)  =   0.97643
                        Viscosity (mPa s)  =   1.70464
                        Activity of water  =   1.000
                 Ionic strength (mol/kgw)  =   6.775e-04
                       Mass of water (kg)  =   1.000e+00
                 Total alkalinity (eq/kg)  =   4.130e-04
                       Total CO2 (mol/kg)  =   2.065e-04
                         Temperature (°C)  =   0.00
                           Pressure (atm)  = 500.00
                  Electrical balance (eq)  =  -1.217e-09
 Percent error, 100*(Cat-|An|)/(Cat+|An|)  =  -0.00
                               Iterations  =  20
                                  Total H  = 1.110124e+02
                                  Total O  = 5.550684e+01

----------------------------Distribution of species----------------------------

                                               Log       Log       Log    mole V
   Species          Molality    Activity  Molality  Activity     Gamma   cm³/mol

   OH-             6.600e-05   6.418e-05    -4.180    -4.193    -0.012      0.06
   H+              2.724e-11   2.652e-11   -10.565   -10.576    -0.012      0.00
   H2O             5.551e+01   1.000e+00     1.744    -0.000     0.000     17.59
C(-4)         0.000e+00
   CH4             0.000e+00   0.000e+00  -140.900  -140.900     0.000     33.66
C(4)          2.065e-04
   CO3-2           1.196e-04   1.071e-04    -3.922    -3.970    -0.048     -5.10
   HCO3-           6.711e-05   6.529e-05    -4.173    -4.185    -0.012     22.54
   CaCO3           1.978e-05   1.978e-05    -4.704    -4.704     0.000    -11.11
   CO2             3.495e-09   3.495e-09    -8.457    -8.457     0.000     33.24
   CaHCO3+         1.879e-15   1.829e-15   -14.726   -14.738    -0.012      9.80
   (CO2)2          4.157e-20   4.158e-20   -19.381   -19.381     0.000     65.65
Ca            2.065e-04
   Ca+2            1.856e-04   1.662e-04    -3.731    -3.779    -0.048    -15.30
   CaCO3           1.978e-05   1.978e-05    -4.704    -4.704     0.000    -11.11
   CaOH+           1.125e-06   1.095e-06    -5.949    -5.961    -0.012     (0)  
   CaHCO3+         1.879e-15   1.829e-15   -14.726   -14.738    -0.012      9.80
H(0)          0.000e+00
   H2              0.000e+00   0.000e+00   -43.176   -43.176     0.000     13.36
O(0)          9.926e-16
   O2              4.963e-16   4.964e-16   -15.304   -15.304     0.000     27.50

------------------------------Saturation indices-------------------------------

  Phase               SI** log IAP   log K(273 K, 500 atm)

  Aragonite        -0.06     -7.75   -7.69  CaCO3
  Calcite           0.00     -7.75   -7.75  CaCO3
  CH4(g)         -138.10   -140.90   -2.80  CH4
  CO2(g)           -7.03     -8.46   -1.43  CO2
  H2(g)           -40.02    -43.18   -3.16  H2
  H2O(g)           -2.04     -0.00    2.04  H2O
  O2(g)           -12.38    -15.30   -2.92  O2

**For a gas, SI = log10(fugacity). Fugacity = pressure * phi / 1 atm.
  For ideal gases, phi = 1.

Reaction step 2.

Using solution 2.	
Using pure phase assemblage 1.	
Using temperature 1.	
Using pressure 1.	

----------------------------------User print-----------------------------------

 -7.9815e+00 
 -7.9815e+00 
  1.0093e+01 
  1.0093e+01 

-------------------------------Phase assemblage--------------------------------

                                                      Moles in assemblage
Phase               SI  log IAP  log K(T, P)   Initial       Final       Delta

Calcite           0.00    -7.98     -7.98    1.000e+01   1.000e+01  -1.997e-04

-----------------------------Solution composition------------------------------

	Elements           Molality       Moles

	C                 1.997e-04   1.997e-04
	Ca                1.997e-04   1.997e-04

----------------------------Description of solution----------------------------

                                       pH  =   9.855      Charge balance
                                       pe  =   7.822      Adjusted to redox equilibrium
      Specific Conductance (µS/cm,  25°C)  = 56
                          Density (g/cm³)  =   1.01875
                               Volume (L)  =   0.98161
                        Viscosity (mPa s)  =   0.88765
                        Activity of water  =   1.000
                 Ionic strength (mol/kgw)  =   6.213e-04
                       Mass of water (kg)  =   1.000e+00
                 Total alkalinity (eq/kg)  =   3.994e-04
                       Total CO2 (mol/kg)  =   1.997e-04
                         Temperature (°C)  =  25.00
                           Pressure (atm)  = 500.00
                  Electrical balance (eq)  =  -1.217e-09
 Percent error, 100*(Cat-|An|)/(Cat+|An|)  =  -0.00
                               Iterations  =  18
                                  Total H  = 1.110124e+02
                                  Total O  = 5.550682e+01

----------------------------Distribution of species----------------------------

                                               Log       Log       Log    mole V
   Species          Molality    Activity  Molality  Activity     Gamma   cm³/mol

   OH-             1.126e-04   1.095e-04    -3.948    -3.961    -0.012     -2.50
   H+              1.433e-10   1.395e-10    -9.844    -9.855    -0.012      0.00
   H2O             5.551e+01   1.000e+00     1.744    -0.000     0.000     17.68
C(-4)         0.000e+00
   CH4             0.000e+00   0.000e+00  -125.050  -125.050     0.000     36.02
C(4)          1.997e-04
   HCO3-           1.128e-04   1.097e-04    -3.948    -3.960    -0.012     25.87
   CO3-2           7.084e-05   6.349e-05    -4.150    -4.197    -0.048     -0.76
   CaCO3           1.607e-05   1.607e-05    -4.794    -4.794     0.000    -11.51
   CO2             2.020e-08   2.020e-08    -7.695    -7.695     0.000     34.30
   CaHCO3+         1.628e-12   1.584e-12   -11.788   -11.800    -0.012     10.78
   (CO2)2          6.747e-18   6.748e-18   -17.171   -17.171     0.000     67.77
Ca            1.997e-04
   Ca+2            1.834e-04   1.644e-04    -3.737    -3.784    -0.048    -15.00
   CaCO3           1.607e-05   1.607e-05    -4.794    -4.794     0.000    -11.51
   CaOH+           2.123e-07   2.065e-07    -6.673    -6.685    -0.012     (0)  
   CaHCO3+         1.628e-12   1.584e-12   -11.788   -11.800    -0.012     10.78
H(0)          4.584e-39
   H2              2.292e-39   2.293e-39   -38.640   -38.640     0.000     15.28
O(0)          9.926e-16
   O2              4.963e-16   4.964e-16   -15.304   -15.304     0.000     29.76

------------------------------Saturation indices-------------------------------

  Phase               SI** log IAP   log K(298 K, 500 atm)

  Aragonite        -0.09     -7.98   -7.89  CaCO3
  Calcite           0.00     -7.98   -7.98  CaCO3
  CH4(g)         -121.93   -125.05   -3.12  CH4
  CO2(g)           -5.92     -7.69   -1.77  CO2
  H2(g)           -35.40    -38.64   -3.23  H2
  H2O(g)           -1.35     -0.00    1.35  H2O
  O2(g)           -12.15    -15.30   -3.16  O2

**For a gas, SI = log10(fugacity). Fugacity = pressure * phi / 1 atm.
  For ideal gases, phi = 1.

Reaction step 3.

Using solution 2.	
Using pure phase assemblage 1.	
Using temperature 1.	
Using pressure 1.	

----------------------------------User print-----------------------------------

 -8.3890e+00 
 -8.3890e+00 
  9.9299e+00 
  9.9299e+00 

-------------------------------Phase assemblage--------------------------------

                                                      Moles in assemblage
Phase               SI  log IAP  log K(T, P)   Initial       Final       Delta

Calcite          -0.00    -8.39     -8.39    1.000e+01   1.000e+01  -2.172e-04

-----------------------------Solution composition------------------------------

	Elements           Molality       Moles

	C                 2.172e-04   2.172e-04
	Ca                2.172e-04   2.172e-04

----------------------------Description of solution----------------------------

                                       pH  =   9.063      Charge balance
                                       pe  =   5.996      Adjusted to redox equilibrium
      Specific Conductance (µS/cm,  60°C)  = 116
                          Density (g/cm³)  =   1.00404
                               Volume (L)  =   0.99600
                        Viscosity (mPa s)  =   0.47877
                        Activity of water  =   1.000
                 Ionic strength (mol/kgw)  =   6.259e-04
                       Mass of water (kg)  =   1.000e+00
                 Total alkalinity (eq/kg)  =   4.343e-04
                       Total CO2 (mol/kg)  =   2.172e-04
                         Temperature (°C)  =  60.00
                           Pressure (atm)  = 500.00
                  Electrical balance (eq)  =  -1.216e-09
 Percent error, 100*(Cat-|An|)/(Cat+|An|)  =  -0.00
                               Iterations  =  15
                                  Total H  = 1.110124e+02
                                  Total O  = 5.550687e+01

----------------------------Distribution of species----------------------------

                                               Log       Log       Log    mole V
   Species          Molality    Activity  Molality  Activity     Gamma   cm³/mol

   OH-             1.744e-04   1.693e-04    -3.758    -3.771    -0.013     -4.91
   H+              8.905e-10   8.655e-10    -9.050    -9.063    -0.012      0.00
   H2O             5.551e+01   1.000e+00     1.744    -0.000     0.000     17.94
C(-4)         0.000e+00
   CH4             0.000e+00   0.000e+00  -107.595  -107.595     0.000     38.12
C(4)          2.172e-04
   HCO3-           1.741e-04   1.691e-04    -3.759    -3.772    -0.013     27.05
   CO3-2           2.581e-05   2.295e-05    -4.588    -4.639    -0.051      0.07
   CaCO3           1.709e-05   1.710e-05    -4.767    -4.767     0.000    -11.73
   CO2             1.758e-07   1.758e-07    -6.755    -6.755     0.000     35.67
   CaHCO3+         1.272e-09   1.235e-09    -8.896    -8.908    -0.013     11.23
   (CO2)2          1.798e-15   1.799e-15   -14.745   -14.745     0.000     70.50
Ca            2.172e-04
   Ca+2            2.000e-04   1.779e-04    -3.699    -3.750    -0.051    -15.38
   CaCO3           1.709e-05   1.710e-05    -4.767    -4.767     0.000    -11.73
   CaOH+           3.682e-08   3.575e-08    -7.434    -7.447    -0.013     (0)  
   CaHCO3+         1.272e-09   1.235e-09    -8.896    -8.908    -0.013     11.23
H(0)          5.828e-34
   H2              2.914e-34   2.915e-34   -33.535   -33.535     0.000     16.62
O(0)          9.926e-16
   O2              4.963e-16   4.964e-16   -15.304   -15.304     0.000     31.30

------------------------------Saturation indices-------------------------------

  Phase               SI** log IAP   log K(333 K, 500 atm)

  Aragonite        -0.14     -8.39   -8.25  CaCO3
  Calcite          -0.00     -8.39   -8.39  CaCO3
  CH4(g)         -104.30   -107.60   -3.29  CH4
  CO2(g)           -4.69     -6.75   -2.07  CO2
  H2(g)           -30.27    -33.54   -3.26  H2
  H2O(g)           -0.57     -0.00    0.57  H2O
  O2(g)           -11.99    -15.30   -3.31  O2

**For a gas, SI = log10(fugacity). Fugacity = pressure * phi / 1 atm.
  For ideal gases, phi = 1.

Reaction step 4.

Using solution 2.	
Using pure phase assemblage 1.	
Using temperature 1.	
Using pressure 1.	

----------------------------------User print-----------------------------------

 -8.9885e+00 
 -8.9885e+00 
  9.9507e+00 
  9.9507e+00 

-------------------------------Phase assemblage--------------------------------

                                                      Moles in assemblage
Phase               SI  log IAP  log K(T, P)   Initial       Final       Delta

Calcite          -0.00    -8.99     -8.99    1.000e+01   1.000e+01  -2.322e-04

-----------------------------Solution composition------------------------------

	Elements           Molality       Moles

	C                 2.322e-04   2.322e-04
	Ca                2.322e-04   2.322e-04

----------------------------Description of solution----------------------------

                                       pH  =   8.369      Charge balance
                                       pe  =   4.466      Adjusted to redox equilibrium
      Specific Conductance (µS/cm, 100°C)  = 191
                          Density (g/cm³)  =   0.98062
                               Volume (L)  =   1.01978
                        Viscosity (mPa s)  =   0.29521
                        Activity of water  =   1.000
                 Ionic strength (mol/kgw)  =   6.622e-04
                       Mass of water (kg)  =   1.000e+00
                 Total alkalinity (eq/kg)  =   4.645e-04
                       Total CO2 (mol/kg)  =   2.322e-04
                         Temperature (°C)  = 100.00
                           Pressure (atm)  = 500.00
                  Electrical balance (eq)  =  -1.216e-09
 Percent error, 100*(Cat-|An|)/(Cat+|An|)  =  -0.00
                               Iterations  =  14
                                  Total H  = 1.110124e+02
                                  Total O  = 5.550691e+01

----------------------------Distribution of species----------------------------

                                               Log       Log       Log    mole V
   Species          Molality    Activity  Molality  Activity     Gamma   cm³/mol

   OH-             2.141e-04   2.071e-04    -3.669    -3.684    -0.014     -7.77
   H+              4.410e-09   4.272e-09    -8.356    -8.369    -0.014      0.00
   H2O             5.551e+01   1.000e+00     1.744    -0.000     0.000     18.37
C(-4)         0.000e+00
   CH4             0.000e+00   0.000e+00   -93.313   -93.313     0.000     40.52
C(4)          2.322e-04
   HCO3-           2.111e-04   2.043e-04    -3.676    -3.690    -0.014     26.27
   CaCO3           1.345e-05   1.346e-05    -4.871    -4.871     0.000    -11.83
   CO3-2           6.109e-06   5.357e-06    -5.214    -5.271    -0.057     -2.62
   CO2             1.434e-06   1.434e-06    -5.844    -5.844     0.000     37.71
   CaHCO3+         1.335e-07   1.292e-07    -6.874    -6.889    -0.014     11.24
   (CO2)2          1.855e-13   1.855e-13   -12.732   -12.732     0.000     74.58
Ca            2.322e-04
   Ca+2            2.186e-04   1.917e-04    -3.660    -3.717    -0.057    -16.55
   CaCO3           1.345e-05   1.346e-05    -4.871    -4.871     0.000    -11.83
   CaHCO3+         1.335e-07   1.292e-07    -6.874    -6.889    -0.014     11.24
   CaOH+           7.931e-09   7.671e-09    -8.101    -8.115    -0.014     (0)  
H(0)          1.245e-29
   H2              6.223e-30   6.224e-30   -29.206   -29.206     0.000     17.69
O(0)          1.287e-15
   O2              6.437e-16   6.438e-16   -15.191   -15.191     0.000     32.48

------------------------------Saturation indices-------------------------------

  Phase               SI** log IAP   log K(373 K, 500 atm)

  Aragonite        -0.20     -8.99   -8.79  CaCO3
  Calcite          -0.00     -8.99   -8.99  CaCO3
  CH4(g)          -90.02    -93.31   -3.29  CH4
  CO2(g)           -3.60     -5.84   -2.25  CO2
  H2(g)           -25.99    -29.21   -3.21  H2
  H2O(g)            0.13     -0.00   -0.13  H2O
  O2(g)           -11.85    -15.19   -3.34  O2

**For a gas, SI = log10(fugacity). Fugacity = pressure * phi / 1 atm.
  For ideal gases, phi = 1.

Reaction step 5.

Using solution 2.	
Using pure phase assemblage 1.	
Using temperature 1.	
Using pressure 1.	

----------------------------------User print-----------------------------------

 -9.9021e+00 
 -9.9021e+00 
  1.0176e+01 
  1.0176e+01 

-------------------------------Phase assemblage--------------------------------

                                                      Moles in assemblage
Phase               SI  log IAP  log K(T, P)   Initial       Final       Delta

Calcite           0.00    -9.90     -9.90    1.000e+01   1.000e+01  -2.107e-04

-----------------------------Solution composition------------------------------

	Elements           Molality       Moles

	C                 2.107e-04   2.107e-04
	Ca                2.107e-04   2.107e-04

----------------------------Description of solution----------------------------

                                       pH  =   7.750      Charge balance
                                       pe  =   3.113      Adjusted to redox equilibrium
      Specific Conductance (µS/cm, 150°C)  = 244
                          Density (g/cm³)  =   0.94311
                               Volume (L)  =   1.06035
                        Viscosity (mPa s)  =   0.19506
                        Activity of water  =   1.000
                 Ionic strength (mol/kgw)  =   6.208e-04
                       Mass of water (kg)  =   1.000e+00
                 Total alkalinity (eq/kg)  =   4.215e-04
                       Total CO2 (mol/kg)  =   2.107e-04
                         Temperature (°C)  = 150.00
                           Pressure (atm)  = 500.00
                  Electrical balance (eq)  =  -1.217e-09
 Percent error, 100*(Cat-|An|)/(Cat+|An|)  =  -0.00
                               Iterations  =  13
                                  Total H  = 1.110124e+02
                                  Total O  = 5.550685e+01

----------------------------Distribution of species----------------------------

                                               Log       Log       Log    mole V
   Species          Molality    Activity  Molality  Activity     Gamma   cm³/mol

   OH-             2.183e-04   2.104e-04    -3.661    -3.677    -0.016    -12.99
   H+              1.840e-08   1.777e-08    -7.735    -7.750    -0.015      0.00
   H2O             5.551e+01   1.000e+00     1.744    -0.000     0.000     19.10
C(-4)         0.000e+00
   CH4             0.000e+00   0.000e+00   -81.411   -81.411     0.000     44.75
C(4)          2.107e-04
   HCO3-           1.940e-04   1.871e-04    -3.712    -3.728    -0.016     22.65
   CO2             1.127e-05   1.127e-05    -4.948    -4.948     0.000     41.84
   CaCO3           2.907e-06   2.907e-06    -5.537    -5.537     0.000    -11.84
   CaHCO3+         1.759e-06   1.696e-06    -5.755    -5.770    -0.016     10.73
   CO3-2           8.119e-07   7.027e-07    -6.091    -6.153    -0.063    -11.20
   (CO2)2          6.911e-12   6.912e-12   -11.160   -11.160     0.000     82.85
Ca            2.107e-04
   Ca+2            2.061e-04   1.783e-04    -3.686    -3.749    -0.063    -19.44
   CaCO3           2.907e-06   2.907e-06    -5.537    -5.537     0.000    -11.84
   CaHCO3+         1.759e-06   1.696e-06    -5.755    -5.770    -0.016     10.73
   CaOH+           1.719e-09   1.658e-09    -8.765    -8.781    -0.016     (0)  
H(0)          8.411e-26
   H2              4.205e-26   4.206e-26   -25.376   -25.376     0.000     19.11
O(0)          9.924e-16
   O2              4.962e-16   4.963e-16   -15.304   -15.304     0.000     33.96

------------------------------Saturation indices-------------------------------

  Phase               SI** log IAP   log K(423 K, 500 atm)

  Aragonite        -0.23     -9.90   -9.67  CaCO3
  Calcite           0.00     -9.90   -9.90  CaCO3
  CH4(g)          -78.24    -81.41   -3.17  CH4
  CO2(g)           -2.61     -4.95   -2.33  CO2
  H2(g)           -22.30    -25.38   -3.07  H2
  H2O(g)            0.78     -0.00   -0.78  H2O
  O2(g)           -12.05    -15.30   -3.25  O2

**For a gas, SI = log10(fugacity). Fugacity = pressure * phi / 1 atm.
  For ideal gases, phi = 1.

Reaction step 6.

Using solution 2.	
Using pure phase assemblage 1.	
Using temperature 1.	
Using pressure 1.	

----------------------------------User print-----------------------------------

 -1.0938e+01 
 -1.0938e+01 
  1.0538e+01 
  1.0538e+01 

-------------------------------Phase assemblage--------------------------------

                                                      Moles in assemblage
Phase               SI  log IAP  log K(T, P)   Initial       Final       Delta

Calcite           0.00   -10.94    -10.94    1.000e+01   1.000e+01  -1.651e-04

-----------------------------Solution composition------------------------------

	Elements           Molality       Moles

	C                 1.651e-04   1.651e-04
	Ca                1.651e-04   1.651e-04

----------------------------Description of solution----------------------------

                                       pH  =   7.380      Charge balance
                                       pe  =   2.777      Adjusted to redox equilibrium
      Specific Conductance (µS/cm, 200°C)  = 232
                          Density (g/cm³)  =   0.89721
                               Volume (L)  =   1.11458
                        Viscosity (mPa s)  =   0.14616
                        Activity of water  =   1.000
                 Ionic strength (mol/kgw)  =   4.920e-04
                       Mass of water (kg)  =   1.000e+00
                 Total alkalinity (eq/kg)  =   3.302e-04
                       Total CO2 (mol/kg)  =   1.651e-04
                         Temperature (°C)  = 200.00
                           Pressure (atm)  = 500.00
                  Electrical balance (eq)  =  -1.217e-09
 Percent error, 100*(Cat-|An|)/(Cat+|An|)  =  -0.00
                               Iterations  =  13
                                  Total H  = 1.110124e+02
                                  Total O  = 5.550671e+01

----------------------------Distribution of species----------------------------

                                               Log       Log       Log    mole V
   Species          Molality    Activity  Molality  Activity     Gamma   cm³/mol

   OH-             2.062e-04   1.986e-04    -3.686    -3.702    -0.016    -22.30
   H+              4.318e-08   4.164e-08    -7.365    -7.380    -0.016      0.00
   H2O             5.551e+01   1.000e+00     1.744    -0.000     0.000     20.08
C(-4)         0.000e+00
   CH4             0.000e+00   0.000e+00   -79.376   -79.376     0.000     52.22
C(4)          1.651e-04
   HCO3-           1.221e-04   1.176e-04    -3.913    -3.930    -0.016     14.66
   CO2             4.130e-05   4.130e-05    -4.384    -4.384     0.000     49.49
   CaHCO3+         1.546e-06   1.489e-06    -5.811    -5.827    -0.016      9.43
   CaCO3           1.075e-07   1.075e-07    -6.969    -6.969     0.000    -11.75
   CO3-2           9.503e-08   8.189e-08    -7.022    -7.087    -0.065    -29.07
   (CO2)2          2.446e-11   2.446e-11   -10.612   -10.611     0.000     98.15
Ca            1.651e-04
   Ca+2            1.635e-04   1.408e-04    -3.787    -3.851    -0.065    -25.14
   CaHCO3+         1.546e-06   1.489e-06    -5.811    -5.827    -0.016      9.43
   CaCO3           1.075e-07   1.075e-07    -6.969    -6.969     0.000    -11.75
   CaOH+           5.461e-10   5.258e-10    -9.263    -9.279    -0.016     (0)  
H(0)          1.737e-24
   H2              8.687e-25   8.688e-25   -24.061   -24.061     0.000     21.27
O(0)          8.309e-14
   O2              4.155e-14   4.155e-14   -13.381   -13.381     0.000     36.14

------------------------------Saturation indices-------------------------------

  Phase               SI** log IAP   log K(473 K, 500 atm)

  Aragonite        -0.20    -10.94  -10.73  CaCO3
  Calcite           0.00    -10.94  -10.94  CaCO3
  CH4(g)          -76.34    -79.38   -3.04  CH4
  CO2(g)           -2.05     -4.38   -2.33  CO2
  H2(g)           -21.19    -24.06   -2.87  H2
  H2O(g)            1.26     -0.00   -1.26  H2O
  O2(g)           -10.31    -13.38   -3.07  O2

**For a gas, SI = log10(fugacity). Fugacity = pressure * phi / 1 atm.
  For ideal gases, phi = 1.

------------------
End of simulation.
------------------

------------------------------------
Reading input data for simulation 3.
------------------------------------

