WARNING: Database file from DATABASE keyword is used; command line argument ignored.
   Input file: McBride_rho
  Output file: McBride_rho.out
Database file: ../database/pitzer.dat

------------------
Reading data base.
------------------

WARNING: Unknown input, no keyword has been specified.
	SOLUTION_MASTER_SPECIES
	SOLUTION_SPECIES
	PHASES
	PITZER
	GAS_BINARY_PARAMETERS
	EXCHANGE_MASTER_SPECIES
	EXCHANGE_SPECIES
	SURFACE_MASTER_SPECIES
	SURFACE_SPECIES
	MEAN_GAMMAS
	END
------------------------------------
Reading input data for simulation 1.
------------------------------------

	DATABASE ../database/pitzer.dat
	SELECTED_OUTPUT 101
	    file                 McBride_rho_101.sel
	USER_PUNCH 101
	    headings Mu SC
	    start
	10 PUNCH STR_F$(MU, 20, 12)
	20 PUNCH STR_F$(SC, 20, 10)
	    end
	SOLUTION 1
	temp 1.5
	pH 4 charge
	C 0.4815e3 # tC = 1e3 / 18.016 / (1/xC - 1)
	REACTION_PRESSURE 1
	1 1000 in 11
	USER_GRAPH 1 Density of CO2-H2O, x_CO2 = 8.6e-3
	-axis_titles "pressure / (MPa)" "density / (g/L)"
	-plot_tsv_file McBride_rho.tsv
	-connect_simulations false
	10 graph_x pressure / 10 * 1.01325
	20 graph_y rho * 1e3
	END
-------------------------------------------
Beginning of initial solution calculations.
-------------------------------------------

Initial solution 1.	

-----------------------------Solution composition------------------------------

	Elements           Molality       Moles

	C                 4.815e-01   4.815e-01

----------------------------Description of solution----------------------------

                                       pH  =   3.433      Charge balance
                                       pe  =   4.000    
      Specific Conductance (µS/cm,   2°C)  = 90
                          Density (g/cm³)  =   1.00488
                               Volume (L)  =   1.01624
                        Viscosity (mPa s)  =   1.82714
                        Activity of water  =   0.991
                 Ionic strength (mol/kgw)  =   3.791e-04
                       Mass of water (kg)  =   1.000e+00
                 Total alkalinity (eq/kg)  =   1.143e-18
                       Total CO2 (mol/kg)  =   4.815e-01
                         Temperature (°C)  =   1.50
                  Electrical balance (eq)  =  -1.143e-18
 Percent error, 100*(Cat-|An|)/(Cat+|An|)  =  -0.00
                               Iterations  =   8
                         Gamma iterations  =   3
                      Osmotic coefficient  =   1.00986
                         Density of water  =   0.99992
                                  Total H  = 1.110132e+02
                                  Total O  = 5.646960e+01

----------------------------Distribution of species----------------------------

                                                    MacInnes  MacInnes
                                MacInnes       Log       Log       Log    mole V
   Species          Molality    Activity  Molality  Activity     Gamma   cm³/mol

   H+              3.791e-04   3.692e-04    -3.421    -3.433    -0.011      0.00
   OH-             3.645e-12   3.583e-12   -11.438   -11.446    -0.007     -5.96
   H2O             5.551e+01   9.913e-01     1.744    -0.004     0.000     18.02
C(4)          4.815e-01
   CO2             4.811e-01   4.907e-01    -0.318    -0.309     0.009     33.58
   HCO3-           3.791e-04   3.726e-04    -3.421    -3.429    -0.007     19.74
   CO3-2           2.647e-11   2.444e-11   -10.577   -10.612    -0.035     -8.80

------------------------------Saturation indices-------------------------------

  Phase               SI** log IAP   log K(274 K,   1 atm)

  CO2(g)            0.82     -0.31   -1.13  CO2
  H2O(g)           -2.17     -0.00    2.16  H2O

**For a gas, SI = log10(fugacity). Fugacity = pressure * phi / 1 atm.
  For ideal gases, phi = 1.

-----------------------------------------
Beginning of batch-reaction calculations.
-----------------------------------------

Reaction step 1.

Using solution 1.	
Using pressure 1.	

-----------------------------Solution composition------------------------------

	Elements           Molality       Moles

	C                 4.815e-01   4.815e-01

----------------------------Description of solution----------------------------

                                       pH  =   3.433      Charge balance
                                       pe  =   4.000      Adjusted to redox equilibrium
      Specific Conductance (µS/cm,   2°C)  = 90
                          Density (g/cm³)  =   1.00488
                               Volume (L)  =   1.01624
                        Viscosity (mPa s)  =   1.82714
                        Activity of water  =   0.991
                 Ionic strength (mol/kgw)  =   3.791e-04
                       Mass of water (kg)  =   1.000e+00
                 Total alkalinity (eq/kg)  =   1.143e-18
                       Total CO2 (mol/kg)  =   4.815e-01
                         Temperature (°C)  =   1.50
                  Electrical balance (eq)  =  -1.143e-18
 Percent error, 100*(Cat-|An|)/(Cat+|An|)  =  -0.00
                               Iterations  =   1
                         Gamma iterations  =   1
                      Osmotic coefficient  =   1.00986
                         Density of water  =   0.99992
                                  Total H  = 1.110132e+02
                                  Total O  = 5.646960e+01

----------------------------Distribution of species----------------------------

                                                    MacInnes  MacInnes
                                MacInnes       Log       Log       Log    mole V
   Species          Molality    Activity  Molality  Activity     Gamma   cm³/mol

   H+              3.791e-04   3.692e-04    -3.421    -3.433    -0.011      0.00
   OH-             3.645e-12   3.583e-12   -11.438   -11.446    -0.007     -5.96
   H2O             5.551e+01   9.913e-01     1.744    -0.004     0.000     18.02
C(4)          4.815e-01
   CO2             4.811e-01   4.907e-01    -0.318    -0.309     0.009     33.58
   HCO3-           3.791e-04   3.726e-04    -3.421    -3.429    -0.007     19.74
   CO3-2           2.647e-11   2.444e-11   -10.577   -10.612    -0.035     -8.80

------------------------------Saturation indices-------------------------------

  Phase               SI** log IAP   log K(274 K,   1 atm)

  CO2(g)            0.82     -0.31   -1.13  CO2
  H2O(g)           -2.17     -0.00    2.16  H2O

**For a gas, SI = log10(fugacity). Fugacity = pressure * phi / 1 atm.
  For ideal gases, phi = 1.

Reaction step 2.

Using solution 1.	
Using pressure 1.	

-----------------------------Solution composition------------------------------

	Elements           Molality       Moles

	C                 4.815e-01   4.815e-01

----------------------------Description of solution----------------------------

                                       pH  =   3.402      Charge balance
                                       pe  =   4.000      Adjusted to redox equilibrium
      Specific Conductance (µS/cm,   2°C)  = 98
                          Density (g/cm³)  =   1.00991
                               Volume (L)  =   1.01118
                        Viscosity (mPa s)  =   1.80725
                        Activity of water  =   0.991
                 Ionic strength (mol/kgw)  =   4.067e-04
                       Mass of water (kg)  =   1.000e+00
                 Total alkalinity (eq/kg)  =   3.837e-16
                       Total CO2 (mol/kg)  =   4.815e-01
                         Temperature (°C)  =   1.50
                           Pressure (atm)  = 100.90
                  Electrical balance (eq)  =  -3.837e-16
 Percent error, 100*(Cat-|An|)/(Cat+|An|)  =  -0.00
                               Iterations  =   6
                         Gamma iterations  =   2
                      Osmotic coefficient  =   1.00985
                         Density of water  =   1.00499
                                  Total H  = 1.110132e+02
                                  Total O  = 5.646960e+01

----------------------------Distribution of species----------------------------

                                                    MacInnes  MacInnes
                                MacInnes       Log       Log       Log    mole V
   Species          Molality    Activity  Molality  Activity     Gamma   cm³/mol

   H+              4.067e-04   3.959e-04    -3.391    -3.402    -0.012      0.00
   OH-             3.760e-12   3.693e-12   -11.425   -11.433    -0.008     -4.63
   H2O             5.551e+01   9.913e-01     1.744    -0.004     0.000     17.93
C(4)          4.815e-01
   CO2             4.811e-01   4.907e-01    -0.318    -0.309     0.009     33.53
   HCO3-           4.067e-04   3.995e-04    -3.391    -3.398    -0.008     19.97
   CO3-2           3.002e-11   2.764e-11   -10.523   -10.558    -0.036     -7.83

------------------------------Saturation indices-------------------------------

  Phase               SI** log IAP   log K(274 K, 101 atm)

  CO2(g)            0.88     -0.31   -1.19  CO2
  H2O(g)           -2.13     -0.00    2.13  H2O

**For a gas, SI = log10(fugacity). Fugacity = pressure * phi / 1 atm.
  For ideal gases, phi = 1.

Reaction step 3.

Using solution 1.	
Using pressure 1.	

-----------------------------Solution composition------------------------------

	Elements           Molality       Moles

	C                 4.815e-01   4.815e-01

----------------------------Description of solution----------------------------

                                       pH  =   3.373      Charge balance
                                       pe  =   4.000      Adjusted to redox equilibrium
      Specific Conductance (µS/cm,   2°C)  = 107
                          Density (g/cm³)  =   1.01483
                               Volume (L)  =   1.00628
                        Viscosity (mPa s)  =   1.78935
                        Activity of water  =   0.991
                 Ionic strength (mol/kgw)  =   4.357e-04
                       Mass of water (kg)  =   1.000e+00
                 Total alkalinity (eq/kg)  =   7.829e-16
                       Total CO2 (mol/kg)  =   4.815e-01
                         Temperature (°C)  =   1.50
                           Pressure (atm)  = 200.80
                  Electrical balance (eq)  =  -7.829e-16
 Percent error, 100*(Cat-|An|)/(Cat+|An|)  =  -0.00
                               Iterations  =   7
                         Gamma iterations  =   2
                      Osmotic coefficient  =   1.00985
                         Density of water  =   1.00993
                                  Total H  = 1.110132e+02
                                  Total O  = 5.646960e+01

----------------------------Distribution of species----------------------------

                                                    MacInnes  MacInnes
                                MacInnes       Log       Log       Log    mole V
   Species          Molality    Activity  Molality  Activity     Gamma   cm³/mol

   H+              4.357e-04   4.238e-04    -3.361    -3.373    -0.012      0.00
   OH-             3.838e-12   3.768e-12   -11.416   -11.424    -0.008     -3.39
   H2O             5.551e+01   9.913e-01     1.744    -0.004     0.000     17.84
C(4)          4.815e-01
   CO2             4.811e-01   4.907e-01    -0.318    -0.309     0.009     33.47
   HCO3-           4.357e-04   4.277e-04    -3.361    -3.369    -0.008     20.20
   CO3-2           3.385e-11   3.108e-11   -10.470   -10.507    -0.037     -6.93

------------------------------Saturation indices-------------------------------

  Phase               SI** log IAP   log K(274 K, 201 atm)

  CO2(g)            0.95     -0.31   -1.26  CO2
  H2O(g)           -2.10     -0.00    2.09  H2O

**For a gas, SI = log10(fugacity). Fugacity = pressure * phi / 1 atm.
  For ideal gases, phi = 1.

Reaction step 4.

Using solution 1.	
Using pressure 1.	

-----------------------------Solution composition------------------------------

	Elements           Molality       Moles

	C                 4.815e-01   4.815e-01

----------------------------Description of solution----------------------------

                                       pH  =   3.344      Charge balance
                                       pe  =   4.000      Adjusted to redox equilibrium
      Specific Conductance (µS/cm,   2°C)  = 117
                          Density (g/cm³)  =   1.01962
                               Volume (L)  =   1.00155
                        Viscosity (mPa s)  =   1.77338
                        Activity of water  =   0.991
                 Ionic strength (mol/kgw)  =   4.660e-04
                       Mass of water (kg)  =   1.000e+00
                 Total alkalinity (eq/kg)  =   1.158e-15
                       Total CO2 (mol/kg)  =   4.815e-01
                         Temperature (°C)  =   1.50
                           Pressure (atm)  = 300.70
                  Electrical balance (eq)  =  -1.158e-15
 Percent error, 100*(Cat-|An|)/(Cat+|An|)  =  -0.00
                               Iterations  =   7
                         Gamma iterations  =   2
                      Osmotic coefficient  =   1.00985
                         Density of water  =   1.01475
                                  Total H  = 1.110132e+02
                                  Total O  = 5.646960e+01

----------------------------Distribution of species----------------------------

                                                    MacInnes  MacInnes
                                MacInnes       Log       Log       Log    mole V
   Species          Molality    Activity  Molality  Activity     Gamma   cm³/mol

   H+              4.660e-04   4.530e-04    -3.332    -3.344    -0.012      0.00
   OH-             3.884e-12   3.810e-12   -11.411   -11.419    -0.008     -2.24
   H2O             5.551e+01   9.913e-01     1.744    -0.004     0.000     17.75
C(4)          4.815e-01
   CO2             4.810e-01   4.906e-01    -0.318    -0.309     0.009     33.42
   HCO3-           4.660e-04   4.571e-04    -3.332    -3.340    -0.008     20.41
   CO3-2           3.796e-11   3.476e-11   -10.421   -10.459    -0.038     -6.09

------------------------------Saturation indices-------------------------------

  Phase               SI** log IAP   log K(274 K, 301 atm)

  CO2(g)            1.01     -0.31   -1.32  CO2
  H2O(g)           -2.06     -0.00    2.06  H2O

**For a gas, SI = log10(fugacity). Fugacity = pressure * phi / 1 atm.
  For ideal gases, phi = 1.

Reaction step 5.

Using solution 1.	
Using pressure 1.	

-----------------------------Solution composition------------------------------

	Elements           Molality       Moles

	C                 4.815e-01   4.815e-01

----------------------------Description of solution----------------------------

                                       pH  =   3.316      Charge balance
                                       pe  =   4.000      Adjusted to redox equilibrium
      Specific Conductance (µS/cm,   2°C)  = 127
                          Density (g/cm³)  =   1.02429
                               Volume (L)  =   0.99699
                        Viscosity (mPa s)  =   1.75926
                        Activity of water  =   0.991
                 Ionic strength (mol/kgw)  =   4.977e-04
                       Mass of water (kg)  =   1.000e+00
                 Total alkalinity (eq/kg)  =   1.468e-15
                       Total CO2 (mol/kg)  =   4.815e-01
                         Temperature (°C)  =   1.50
                           Pressure (atm)  = 400.60
                  Electrical balance (eq)  =  -1.468e-15
 Percent error, 100*(Cat-|An|)/(Cat+|An|)  =  -0.00
                               Iterations  =   7
                         Gamma iterations  =   2
                      Osmotic coefficient  =   1.00984
                         Density of water  =   1.01944
                                  Total H  = 1.110132e+02
                                  Total O  = 5.646960e+01

----------------------------Distribution of species----------------------------

                                                    MacInnes  MacInnes
                                MacInnes       Log       Log       Log    mole V
   Species          Molality    Activity  Molality  Activity     Gamma   cm³/mol

   H+              4.977e-04   4.836e-04    -3.303    -3.316    -0.013      0.00
   OH-             3.897e-12   3.820e-12   -11.409   -11.418    -0.009     -1.16
   H2O             5.551e+01   9.913e-01     1.744    -0.004     0.000     17.67
C(4)          4.815e-01
   CO2             4.810e-01   4.906e-01    -0.318    -0.309     0.009     33.37
   HCO3-           4.977e-04   4.879e-04    -3.303    -3.312    -0.009     20.61
   CO3-2           4.237e-11   3.868e-11   -10.373   -10.412    -0.040     -5.30

------------------------------Saturation indices-------------------------------

  Phase               SI** log IAP   log K(274 K, 401 atm)

  CO2(g)            1.08     -0.31   -1.39  CO2
  H2O(g)           -2.03     -0.00    2.03  H2O

**For a gas, SI = log10(fugacity). Fugacity = pressure * phi / 1 atm.
  For ideal gases, phi = 1.

Reaction step 6.

Using solution 1.	
Using pressure 1.	

-----------------------------Solution composition------------------------------

	Elements           Molality       Moles

	C                 4.815e-01   4.815e-01

----------------------------Description of solution----------------------------

                                       pH  =   3.288      Charge balance
                                       pe  =   4.000      Adjusted to redox equilibrium
      Specific Conductance (µS/cm,   2°C)  = 138
                          Density (g/cm³)  =   1.02883
                               Volume (L)  =   0.99258
                        Viscosity (mPa s)  =   1.74691
                        Activity of water  =   0.991
                 Ionic strength (mol/kgw)  =   5.309e-04
                       Mass of water (kg)  =   1.000e+00
                 Total alkalinity (eq/kg)  =   1.657e-15
                       Total CO2 (mol/kg)  =   4.815e-01
                         Temperature (°C)  =   1.50
                           Pressure (atm)  = 500.50
                  Electrical balance (eq)  =  -1.657e-15
 Percent error, 100*(Cat-|An|)/(Cat+|An|)  =  -0.00
                               Iterations  =   7
                         Gamma iterations  =   2
                      Osmotic coefficient  =   1.00984
                         Density of water  =   1.02402
                                  Total H  = 1.110132e+02
                                  Total O  = 5.646960e+01

----------------------------Distribution of species----------------------------

                                                    MacInnes  MacInnes
                                MacInnes       Log       Log       Log    mole V
   Species          Molality    Activity  Molality  Activity     Gamma   cm³/mol

   H+              5.309e-04   5.155e-04    -3.275    -3.288    -0.013      0.00
   OH-             3.882e-12   3.802e-12   -11.411   -11.420    -0.009     -0.14
   H2O             5.551e+01   9.913e-01     1.744    -0.004     0.000     17.59
C(4)          4.815e-01
   CO2             4.810e-01   4.906e-01    -0.318    -0.309     0.009     33.32
   HCO3-           5.309e-04   5.201e-04    -3.275    -3.284    -0.009     20.80
   CO3-2           4.708e-11   4.286e-11   -10.327   -10.368    -0.041     -4.56

------------------------------Saturation indices-------------------------------

  Phase               SI** log IAP   log K(274 K, 501 atm)

  CO2(g)            1.14     -0.31   -1.45  CO2
  H2O(g)           -2.00     -0.00    1.99  H2O

**For a gas, SI = log10(fugacity). Fugacity = pressure * phi / 1 atm.
  For ideal gases, phi = 1.

Reaction step 7.

Using solution 1.	
Using pressure 1.	

-----------------------------Solution composition------------------------------

	Elements           Molality       Moles

	C                 4.815e-01   4.815e-01

----------------------------Description of solution----------------------------

                                       pH  =   3.261      Charge balance
                                       pe  =   4.000      Adjusted to redox equilibrium
      Specific Conductance (µS/cm,   2°C)  = 149
                          Density (g/cm³)  =   1.03326
                               Volume (L)  =   0.98832
                        Viscosity (mPa s)  =   1.73624
                        Activity of water  =   0.991
                 Ionic strength (mol/kgw)  =   5.656e-04
                       Mass of water (kg)  =   1.000e+00
                 Total alkalinity (eq/kg)  =   8.109e-16
                       Total CO2 (mol/kg)  =   4.815e-01
                         Temperature (°C)  =   1.50
                           Pressure (atm)  = 600.40
                  Electrical balance (eq)  =  -8.109e-16
 Percent error, 100*(Cat-|An|)/(Cat+|An|)  =  -0.00
                               Iterations  =   8
                         Gamma iterations  =   3
                      Osmotic coefficient  =   1.00984
                         Density of water  =   1.02847
                                  Total H  = 1.110132e+02
                                  Total O  = 5.646960e+01

----------------------------Distribution of species----------------------------

                                                    MacInnes  MacInnes
                                MacInnes       Log       Log       Log    mole V
   Species          Molality    Activity  Molality  Activity     Gamma   cm³/mol

   H+              5.656e-04   5.488e-04    -3.247    -3.261    -0.013      0.00
   OH-             3.841e-12   3.759e-12   -11.416   -11.425    -0.009      0.81
   H2O             5.551e+01   9.913e-01     1.744    -0.004     0.000     17.52
C(4)          4.815e-01
   CO2             4.809e-01   4.905e-01    -0.318    -0.309     0.009     33.27
   HCO3-           5.656e-04   5.537e-04    -3.247    -3.257    -0.009     20.98
   CO3-2           5.210e-11   4.730e-11   -10.283   -10.325    -0.042     -3.85

------------------------------Saturation indices-------------------------------

  Phase               SI** log IAP   log K(274 K, 600 atm)

  CO2(g)            1.20     -0.31   -1.51  CO2
  H2O(g)           -1.96     -0.00    1.96  H2O

**For a gas, SI = log10(fugacity). Fugacity = pressure * phi / 1 atm.
  For ideal gases, phi = 1.

Reaction step 8.

Using solution 1.	
Using pressure 1.	

-----------------------------Solution composition------------------------------

	Elements           Molality       Moles

	C                 4.815e-01   4.815e-01

----------------------------Description of solution----------------------------

                                       pH  =   3.234      Charge balance
                                       pe  =   4.000      Adjusted to redox equilibrium
      Specific Conductance (µS/cm,   2°C)  = 161
                          Density (g/cm³)  =   1.03758
                               Volume (L)  =   0.98421
                        Viscosity (mPa s)  =   1.72715
                        Activity of water  =   0.991
                 Ionic strength (mol/kgw)  =   6.019e-04
                       Mass of water (kg)  =   1.000e+00
                 Total alkalinity (eq/kg)  =   1.238e-15
                       Total CO2 (mol/kg)  =   4.815e-01
                         Temperature (°C)  =   1.50
                           Pressure (atm)  = 700.30
                  Electrical balance (eq)  =  -1.238e-15
 Percent error, 100*(Cat-|An|)/(Cat+|An|)  =  -0.00
                               Iterations  =   8
                         Gamma iterations  =   3
                      Osmotic coefficient  =   1.00983
                         Density of water  =   1.03282
                                  Total H  = 1.110132e+02
                                  Total O  = 5.646960e+01

----------------------------Distribution of species----------------------------

                                                    MacInnes  MacInnes
                                MacInnes       Log       Log       Log    mole V
   Species          Molality    Activity  Molality  Activity     Gamma   cm³/mol

   H+              6.019e-04   5.836e-04    -3.220    -3.234    -0.013      0.00
   OH-             3.777e-12   3.694e-12   -11.423   -11.432    -0.010      1.70
   H2O             5.551e+01   9.913e-01     1.744    -0.004     0.000     17.44
C(4)          4.815e-01
   CO2             4.809e-01   4.905e-01    -0.318    -0.309     0.009     33.22
   HCO3-           6.019e-04   5.888e-04    -3.220    -3.230    -0.010     21.15
   CO3-2           5.745e-11   5.200e-11   -10.241   -10.284    -0.043     -3.19

------------------------------Saturation indices-------------------------------

  Phase               SI** log IAP   log K(274 K, 700 atm)

  CO2(g)            1.27     -0.31   -1.58  CO2
  H2O(g)           -1.93     -0.00    1.93  H2O

**For a gas, SI = log10(fugacity). Fugacity = pressure * phi / 1 atm.
  For ideal gases, phi = 1.

Reaction step 9.

Using solution 1.	
Using pressure 1.	

-----------------------------Solution composition------------------------------

	Elements           Molality       Moles

	C                 4.815e-01   4.815e-01

----------------------------Description of solution----------------------------

                                       pH  =   3.208      Charge balance
                                       pe  =   4.000      Adjusted to redox equilibrium
      Specific Conductance (µS/cm,   2°C)  = 173
                          Density (g/cm³)  =   1.04180
                               Volume (L)  =   0.98022
                        Viscosity (mPa s)  =   1.71955
                        Activity of water  =   0.991
                 Ionic strength (mol/kgw)  =   6.398e-04
                       Mass of water (kg)  =   1.000e+00
                 Total alkalinity (eq/kg)  =   1.813e-15
                       Total CO2 (mol/kg)  =   4.815e-01
                         Temperature (°C)  =   1.50
                           Pressure (atm)  = 800.20
                  Electrical balance (eq)  =  -1.813e-15
 Percent error, 100*(Cat-|An|)/(Cat+|An|)  =  -0.00
                               Iterations  =   8
                         Gamma iterations  =   3
                      Osmotic coefficient  =   1.00983
                         Density of water  =   1.03707
                                  Total H  = 1.110132e+02
                                  Total O  = 5.646960e+01

----------------------------Distribution of species----------------------------

                                                    MacInnes  MacInnes
                                MacInnes       Log       Log       Log    mole V
   Species          Molality    Activity  Molality  Activity     Gamma   cm³/mol

   H+              6.398e-04   6.199e-04    -3.194    -3.208    -0.014      0.00
   OH-             3.693e-12   3.610e-12   -11.433   -11.443    -0.010      2.55
   H2O             5.551e+01   9.913e-01     1.744    -0.004     0.000     17.37
C(4)          4.815e-01
   CO2             4.809e-01   4.905e-01    -0.318    -0.309     0.009     33.18
   HCO3-           6.398e-04   6.254e-04    -3.194    -3.204    -0.010     21.32
   CO3-2           6.314e-11   5.698e-11   -10.200   -10.244    -0.045     -2.57

------------------------------Saturation indices-------------------------------

  Phase               SI** log IAP   log K(274 K, 800 atm)

  CO2(g)            1.33     -0.31   -1.64  CO2
  H2O(g)           -1.90     -0.00    1.90  H2O

**For a gas, SI = log10(fugacity). Fugacity = pressure * phi / 1 atm.
  For ideal gases, phi = 1.

Reaction step 10.

Using solution 1.	
Using pressure 1.	

-----------------------------Solution composition------------------------------

	Elements           Molality       Moles

	C                 4.815e-01   4.815e-01

----------------------------Description of solution----------------------------

                                       pH  =   3.182      Charge balance
                                       pe  =   4.000      Adjusted to redox equilibrium
      Specific Conductance (µS/cm,   2°C)  = 186
                          Density (g/cm³)  =   1.04594
                               Volume (L)  =   0.97635
                        Viscosity (mPa s)  =   1.71335
                        Activity of water  =   0.991
                 Ionic strength (mol/kgw)  =   6.794e-04
                       Mass of water (kg)  =   1.000e+00
                 Total alkalinity (eq/kg)  =   2.574e-15
                       Total CO2 (mol/kg)  =   4.815e-01
                         Temperature (°C)  =   1.50
                           Pressure (atm)  = 900.10
                  Electrical balance (eq)  =  -2.574e-15
 Percent error, 100*(Cat-|An|)/(Cat+|An|)  =  -0.00
                               Iterations  =   8
                         Gamma iterations  =   3
                      Osmotic coefficient  =   1.00982
                         Density of water  =   1.04123
                                  Total H  = 1.110132e+02
                                  Total O  = 5.646960e+01

----------------------------Distribution of species----------------------------

                                                    MacInnes  MacInnes
                                MacInnes       Log       Log       Log    mole V
   Species          Molality    Activity  Molality  Activity     Gamma   cm³/mol

   H+              6.794e-04   6.578e-04    -3.168    -3.182    -0.014      0.00
   OH-             3.593e-12   3.509e-12   -11.445   -11.455    -0.010      3.35
   H2O             5.551e+01   9.913e-01     1.744    -0.004     0.000     17.30
C(4)          4.815e-01
   CO2             4.808e-01   4.904e-01    -0.318    -0.309     0.009     33.13
   HCO3-           6.794e-04   6.636e-04    -3.168    -3.178    -0.010     21.48
   CO3-2           6.918e-11   6.225e-11   -10.160   -10.206    -0.046     -1.97

------------------------------Saturation indices-------------------------------

  Phase               SI** log IAP   log K(274 K, 900 atm)

  CO2(g)            1.39     -0.31   -1.70  CO2
  H2O(g)           -1.87     -0.00    1.86  H2O

**For a gas, SI = log10(fugacity). Fugacity = pressure * phi / 1 atm.
  For ideal gases, phi = 1.

Reaction step 11.

Using solution 1.	
Using pressure 1.	

-----------------------------Solution composition------------------------------

	Elements           Molality       Moles

	C                 4.815e-01   4.815e-01

----------------------------Description of solution----------------------------

                                       pH  =   3.157      Charge balance
                                       pe  =   4.000      Adjusted to redox equilibrium
      Specific Conductance (µS/cm,   2°C)  = 199
                          Density (g/cm³)  =   1.05000
                               Volume (L)  =   0.97257
                        Viscosity (mPa s)  =   1.70850
                        Activity of water  =   0.991
                 Ionic strength (mol/kgw)  =   7.207e-04
                       Mass of water (kg)  =   1.000e+00
                 Total alkalinity (eq/kg)  =   3.563e-15
                       Total CO2 (mol/kg)  =   4.815e-01
                         Temperature (°C)  =   1.50
                           Pressure (atm)  = 1000.00
                  Electrical balance (eq)  =  -3.563e-15
 Percent error, 100*(Cat-|An|)/(Cat+|An|)  =  -0.00
                               Iterations  =   8
                         Gamma iterations  =   3
                      Osmotic coefficient  =   1.00982
                         Density of water  =   1.04531
                                  Total H  = 1.110132e+02
                                  Total O  = 5.646960e+01

----------------------------Distribution of species----------------------------

                                                    MacInnes  MacInnes
                                MacInnes       Log       Log       Log    mole V
   Species          Molality    Activity  Molality  Activity     Gamma   cm³/mol

   H+              7.207e-04   6.974e-04    -3.142    -3.157    -0.014      0.00
   OH-             3.479e-12   3.396e-12   -11.459   -11.469    -0.011      4.10
   H2O             5.551e+01   9.913e-01     1.744    -0.004     0.000     17.24
C(4)          4.815e-01
   CO2             4.808e-01   4.904e-01    -0.318    -0.309     0.009     33.09
   HCO3-           7.207e-04   7.035e-04    -3.142    -3.153    -0.011     21.63
   CO3-2           7.558e-11   6.781e-11   -10.122   -10.169    -0.047     -1.41

------------------------------Saturation indices-------------------------------

  Phase               SI** log IAP   log K(274 K, 1000 atm)

  CO2(g)            1.46     -0.31   -1.77  CO2
  H2O(g)           -1.84     -0.00    1.83  H2O

**For a gas, SI = log10(fugacity). Fugacity = pressure * phi / 1 atm.
  For ideal gases, phi = 1.

------------------
End of simulation.
------------------

------------------------------------
Reading input data for simulation 2.
------------------------------------

	USE solution 1
	 USE reaction_pressure 1
	REACTION_TEMPERATURE 1
	23
	END
-----------------------------------------
Beginning of batch-reaction calculations.
-----------------------------------------

Reaction step 1.

Using solution 1.	
Using temperature 1.	
Using pressure 1.	

-----------------------------Solution composition------------------------------

	Elements           Molality       Moles

	C                 4.815e-01   4.815e-01

----------------------------Description of solution----------------------------

                                       pH  =   3.341      Charge balance
                                       pe  =   4.000      Adjusted to redox equilibrium
      Specific Conductance (µS/cm,  23°C)  = 168
                          Density (g/cm³)  =   1.00199
                               Volume (L)  =   1.01917
                        Viscosity (mPa s)  =   0.96856
                        Activity of water  =   0.991
                 Ionic strength (mol/kgw)  =   4.693e-04
                       Mass of water (kg)  =   1.000e+00
                 Total alkalinity (eq/kg)  =   3.685e-15
                       Total CO2 (mol/kg)  =   4.815e-01
                         Temperature (°C)  =  23.00
                  Electrical balance (eq)  =  -3.685e-15
 Percent error, 100*(Cat-|An|)/(Cat+|An|)  =  -0.00
                               Iterations  =   8
                         Gamma iterations  =   3
                      Osmotic coefficient  =   0.99474
                         Density of water  =   0.99754
                                  Total H  = 1.110132e+02
                                  Total O  = 5.646960e+01

----------------------------Distribution of species----------------------------

                                                    MacInnes  MacInnes
                                MacInnes       Log       Log       Log    mole V
   Species          Molality    Activity  Molality  Activity     Gamma   cm³/mol

   H+              4.693e-04   4.556e-04    -3.329    -3.341    -0.013      0.00
   OH-             1.927e-11   1.888e-11   -10.715   -10.724    -0.009     -4.20
   H2O             5.551e+01   9.914e-01     1.744    -0.004     0.000     18.06
C(4)          4.815e-01
   CO2             4.810e-01   4.760e-01    -0.318    -0.322    -0.005     34.70
   HCO3-           4.693e-04   4.598e-04    -3.329    -3.337    -0.009     23.17
   CO3-2           4.866e-11   4.433e-11   -10.313   -10.353    -0.040     -5.12

------------------------------Saturation indices-------------------------------

  Phase               SI** log IAP   log K(296 K,   1 atm)

  CO2(g)            1.12     -0.32   -1.44  CO2
  H2O(g)           -1.56     -0.00    1.55  H2O

**For a gas, SI = log10(fugacity). Fugacity = pressure * phi / 1 atm.
  For ideal gases, phi = 1.

Reaction step 2.

Using solution 1.	
Using temperature 1.	
Using pressure 1.	

-----------------------------Solution composition------------------------------

	Elements           Molality       Moles

	C                 4.815e-01   4.815e-01

----------------------------Description of solution----------------------------

                                       pH  =   3.315      Charge balance
                                       pe  =   4.000      Adjusted to redox equilibrium
      Specific Conductance (µS/cm,  23°C)  = 181
                          Density (g/cm³)  =   1.00649
                               Volume (L)  =   1.01461
                        Viscosity (mPa s)  =   0.96676
                        Activity of water  =   0.991
                 Ionic strength (mol/kgw)  =   4.985e-04
                       Mass of water (kg)  =   1.000e+00
                 Total alkalinity (eq/kg)  =   3.687e-15
                       Total CO2 (mol/kg)  =   4.815e-01
                         Temperature (°C)  =  23.00
                           Pressure (atm)  = 100.90
                  Electrical balance (eq)  =  -3.687e-15
 Percent error, 100*(Cat-|An|)/(Cat+|An|)  =  -0.00
                               Iterations  =   8
                         Gamma iterations  =   3
                      Osmotic coefficient  =   0.99474
                         Density of water  =   1.00205
                                  Total H  = 1.110132e+02
                                  Total O  = 5.646960e+01

----------------------------Distribution of species----------------------------

                                                    MacInnes  MacInnes
                                MacInnes       Log       Log       Log    mole V
   Species          Molality    Activity  Molality  Activity     Gamma   cm³/mol

   H+              4.985e-04   4.837e-04    -3.302    -3.315    -0.013      0.00
   OH-             1.986e-11   1.945e-11   -10.702   -10.711    -0.009     -3.78
   H2O             5.551e+01   9.914e-01     1.744    -0.004     0.000     17.98
C(4)          4.815e-01
   CO2             4.810e-01   4.760e-01    -0.318    -0.322    -0.005     34.60
   HCO3-           4.985e-04   4.881e-04    -3.302    -3.311    -0.009     23.46
   CO3-2           5.466e-11   4.967e-11   -10.262   -10.304    -0.042     -4.19

------------------------------Saturation indices-------------------------------

  Phase               SI** log IAP   log K(296 K, 101 atm)

  CO2(g)            1.18     -0.32   -1.50  CO2
  H2O(g)           -1.53     -0.00    1.52  H2O

**For a gas, SI = log10(fugacity). Fugacity = pressure * phi / 1 atm.
  For ideal gases, phi = 1.

Reaction step 3.

Using solution 1.	
Using temperature 1.	
Using pressure 1.	

-----------------------------Solution composition------------------------------

	Elements           Molality       Moles

	C                 4.815e-01   4.815e-01

----------------------------Description of solution----------------------------

                                       pH  =   3.290      Charge balance
                                       pe  =   4.000      Adjusted to redox equilibrium
      Specific Conductance (µS/cm,  23°C)  = 194
                          Density (g/cm³)  =   1.01094
                               Volume (L)  =   1.01015
                        Viscosity (mPa s)  =   0.96535
                        Activity of water  =   0.991
                 Ionic strength (mol/kgw)  =   5.286e-04
                       Mass of water (kg)  =   1.000e+00
                 Total alkalinity (eq/kg)  =   3.652e-15
                       Total CO2 (mol/kg)  =   4.815e-01
                         Temperature (°C)  =  23.00
                           Pressure (atm)  = 200.80
                  Electrical balance (eq)  =  -3.652e-15
 Percent error, 100*(Cat-|An|)/(Cat+|An|)  =  -0.00
                               Iterations  =   8
                         Gamma iterations  =   3
                      Osmotic coefficient  =   0.99474
                         Density of water  =   1.00650
                                  Total H  = 1.110132e+02
                                  Total O  = 5.646960e+01

----------------------------Distribution of species----------------------------

                                                    MacInnes  MacInnes
                                MacInnes       Log       Log       Log    mole V
   Species          Molality    Activity  Molality  Activity     Gamma   cm³/mol

   H+              5.286e-04   5.126e-04    -3.277    -3.290    -0.013      0.00
   OH-             2.043e-11   1.999e-11   -10.690   -10.699    -0.009     -3.38
   H2O             5.551e+01   9.914e-01     1.744    -0.004     0.000     17.90
C(4)          4.815e-01
   CO2             4.810e-01   4.759e-01    -0.318    -0.322    -0.005     34.50
   HCO3-           5.286e-04   5.173e-04    -3.277    -3.286    -0.009     23.73
   CO3-2           6.110e-11   5.538e-11   -10.214   -10.257    -0.043     -3.33

------------------------------Saturation indices-------------------------------

  Phase               SI** log IAP   log K(296 K, 201 atm)

  CO2(g)            1.24     -0.32   -1.56  CO2
  H2O(g)           -1.49     -0.00    1.49  H2O

**For a gas, SI = log10(fugacity). Fugacity = pressure * phi / 1 atm.
  For ideal gases, phi = 1.

Reaction step 4.

Using solution 1.	
Using temperature 1.	
Using pressure 1.	

-----------------------------Solution composition------------------------------

	Elements           Molality       Moles

	C                 4.815e-01   4.815e-01

----------------------------Description of solution----------------------------

                                       pH  =   3.266      Charge balance
                                       pe  =   4.000      Adjusted to redox equilibrium
      Specific Conductance (µS/cm,  23°C)  = 207
                          Density (g/cm³)  =   1.01531
                               Volume (L)  =   1.00580
                        Viscosity (mPa s)  =   0.96433
                        Activity of water  =   0.991
                 Ionic strength (mol/kgw)  =   5.595e-04
                       Mass of water (kg)  =   1.000e+00
                 Total alkalinity (eq/kg)  =   3.583e-15
                       Total CO2 (mol/kg)  =   4.815e-01
                         Temperature (°C)  =  23.00
                           Pressure (atm)  = 300.70
                  Electrical balance (eq)  =  -3.583e-15
 Percent error, 100*(Cat-|An|)/(Cat+|An|)  =  -0.00
                               Iterations  =   8
                         Gamma iterations  =   3
                      Osmotic coefficient  =   0.99474
                         Density of water  =   1.01088
                                  Total H  = 1.110132e+02
                                  Total O  = 5.646960e+01

----------------------------Distribution of species----------------------------

                                                    MacInnes  MacInnes
                                MacInnes       Log       Log       Log    mole V
   Species          Molality    Activity  Molality  Activity     Gamma   cm³/mol

   H+              5.595e-04   5.423e-04    -3.252    -3.266    -0.014      0.00
   OH-             2.097e-11   2.051e-11   -10.678   -10.688    -0.010     -3.02
   H2O             5.551e+01   9.914e-01     1.744    -0.004     0.000     17.82
C(4)          4.815e-01
   CO2             4.809e-01   4.759e-01    -0.318    -0.322    -0.005     34.41
   HCO3-           5.595e-04   5.472e-04    -3.252    -3.262    -0.010     23.99
   CO3-2           6.800e-11   6.147e-11   -10.167   -10.211    -0.044     -2.52

------------------------------Saturation indices-------------------------------

  Phase               SI** log IAP   log K(296 K, 301 atm)

  CO2(g)            1.30     -0.32   -1.63  CO2
  H2O(g)           -1.46     -0.00    1.46  H2O

**For a gas, SI = log10(fugacity). Fugacity = pressure * phi / 1 atm.
  For ideal gases, phi = 1.

Reaction step 5.

Using solution 1.	
Using temperature 1.	
Using pressure 1.	

-----------------------------Solution composition------------------------------

	Elements           Molality       Moles

	C                 4.815e-01   4.815e-01

----------------------------Description of solution----------------------------

                                       pH  =   3.242      Charge balance
                                       pe  =   4.000      Adjusted to redox equilibrium
      Specific Conductance (µS/cm,  23°C)  = 221
                          Density (g/cm³)  =   1.01960
                               Volume (L)  =   1.00157
                        Viscosity (mPa s)  =   0.96371
                        Activity of water  =   0.991
                 Ionic strength (mol/kgw)  =   5.913e-04
                       Mass of water (kg)  =   1.000e+00
                 Total alkalinity (eq/kg)  =   3.481e-15
                       Total CO2 (mol/kg)  =   4.815e-01
                         Temperature (°C)  =  23.00
                           Pressure (atm)  = 400.60
                  Electrical balance (eq)  =  -3.481e-15
 Percent error, 100*(Cat-|An|)/(Cat+|An|)  =  -0.00
                               Iterations  =   8
                         Gamma iterations  =   3
                      Osmotic coefficient  =   0.99474
                         Density of water  =   1.01517
                                  Total H  = 1.110132e+02
                                  Total O  = 5.646960e+01

----------------------------Distribution of species----------------------------

                                                    MacInnes  MacInnes
                                MacInnes       Log       Log       Log    mole V
   Species          Molality    Activity  Molality  Activity     Gamma   cm³/mol

   H+              5.913e-04   5.727e-04    -3.228    -3.242    -0.014      0.00
   OH-             2.150e-11   2.101e-11   -10.668   -10.678    -0.010     -2.67
   H2O             5.551e+01   9.914e-01     1.744    -0.004     0.000     17.75
C(4)          4.815e-01
   CO2             4.809e-01   4.759e-01    -0.318    -0.322    -0.005     34.31
   HCO3-           5.913e-04   5.779e-04    -3.228    -3.238    -0.010     24.23
   CO3-2           7.538e-11   6.797e-11   -10.123   -10.168    -0.045     -1.76

------------------------------Saturation indices-------------------------------

  Phase               SI** log IAP   log K(296 K, 401 atm)

  CO2(g)            1.36     -0.32   -1.69  CO2
  H2O(g)           -1.43     -0.00    1.43  H2O

**For a gas, SI = log10(fugacity). Fugacity = pressure * phi / 1 atm.
  For ideal gases, phi = 1.

Reaction step 6.

Using solution 1.	
Using temperature 1.	
Using pressure 1.	

-----------------------------Solution composition------------------------------

	Elements           Molality       Moles

	C                 4.815e-01   4.815e-01

----------------------------Description of solution----------------------------

                                       pH  =   3.219      Charge balance
                                       pe  =   4.000      Adjusted to redox equilibrium
      Specific Conductance (µS/cm,  23°C)  = 235
                          Density (g/cm³)  =   1.02380
                               Volume (L)  =   0.99746
                        Viscosity (mPa s)  =   0.96348
                        Activity of water  =   0.991
                 Ionic strength (mol/kgw)  =   6.240e-04
                       Mass of water (kg)  =   1.000e+00
                 Total alkalinity (eq/kg)  =   3.341e-15
                       Total CO2 (mol/kg)  =   4.815e-01
                         Temperature (°C)  =  23.00
                           Pressure (atm)  = 500.50
                  Electrical balance (eq)  =  -3.341e-15
 Percent error, 100*(Cat-|An|)/(Cat+|An|)  =  -0.00
                               Iterations  =   8
                         Gamma iterations  =   3
                      Osmotic coefficient  =   0.99474
                         Density of water  =   1.01938
                                  Total H  = 1.110132e+02
                                  Total O  = 5.646960e+01

----------------------------Distribution of species----------------------------

                                                    MacInnes  MacInnes
                                MacInnes       Log       Log       Log    mole V
   Species          Molality    Activity  Molality  Activity     Gamma   cm³/mol

   H+              6.240e-04   6.040e-04    -3.205    -3.219    -0.014      0.00
   OH-             2.200e-11   2.149e-11   -10.658   -10.668    -0.010     -2.34
   H2O             5.551e+01   9.914e-01     1.744    -0.004     0.000     17.67
C(4)          4.815e-01
   CO2             4.809e-01   4.759e-01    -0.318    -0.323    -0.005     34.23
   HCO3-           6.240e-04   6.094e-04    -3.205    -3.215    -0.010     24.46
   CO3-2           8.325e-11   7.488e-11   -10.080   -10.126    -0.046     -1.04

------------------------------Saturation indices-------------------------------

  Phase               SI** log IAP   log K(296 K, 501 atm)

  CO2(g)            1.42     -0.32   -1.75  CO2
  H2O(g)           -1.40     -0.00    1.40  H2O

**For a gas, SI = log10(fugacity). Fugacity = pressure * phi / 1 atm.
  For ideal gases, phi = 1.

Reaction step 7.

Using solution 1.	
Using temperature 1.	
Using pressure 1.	

-----------------------------Solution composition------------------------------

	Elements           Molality       Moles

	C                 4.815e-01   4.815e-01

----------------------------Description of solution----------------------------

                                       pH  =   3.196      Charge balance
                                       pe  =   4.000      Adjusted to redox equilibrium
      Specific Conductance (µS/cm,  23°C)  = 249
                          Density (g/cm³)  =   1.02791
                               Volume (L)  =   0.99347
                        Viscosity (mPa s)  =   0.96364
                        Activity of water  =   0.991
                 Ionic strength (mol/kgw)  =   6.575e-04
                       Mass of water (kg)  =   1.000e+00
                 Total alkalinity (eq/kg)  =   3.166e-15
                       Total CO2 (mol/kg)  =   4.815e-01
                         Temperature (°C)  =  23.00
                           Pressure (atm)  = 600.40
                  Electrical balance (eq)  =  -3.166e-15
 Percent error, 100*(Cat-|An|)/(Cat+|An|)  =  -0.00
                               Iterations  =   8
                         Gamma iterations  =   3
                      Osmotic coefficient  =   0.99474
                         Density of water  =   1.02350
                                  Total H  = 1.110132e+02
                                  Total O  = 5.646960e+01

----------------------------Distribution of species----------------------------

                                                    MacInnes  MacInnes
                                MacInnes       Log       Log       Log    mole V
   Species          Molality    Activity  Molality  Activity     Gamma   cm³/mol

   H+              6.575e-04   6.361e-04    -3.182    -3.196    -0.014      0.00
   OH-             2.248e-11   2.195e-11   -10.648   -10.659    -0.010     -2.03
   H2O             5.551e+01   9.914e-01     1.744    -0.004     0.000     17.60
C(4)          4.815e-01
   CO2             4.808e-01   4.758e-01    -0.318    -0.323    -0.005     34.14
   HCO3-           6.575e-04   6.418e-04    -3.182    -3.193    -0.010     24.68
   CO3-2           9.165e-11   8.222e-11   -10.038   -10.085    -0.047     -0.37

------------------------------Saturation indices-------------------------------

  Phase               SI** log IAP   log K(296 K, 600 atm)

  CO2(g)            1.48     -0.32   -1.81  CO2
  H2O(g)           -1.37     -0.00    1.37  H2O

**For a gas, SI = log10(fugacity). Fugacity = pressure * phi / 1 atm.
  For ideal gases, phi = 1.

Reaction step 8.

Using solution 1.	
Using temperature 1.	
Using pressure 1.	

-----------------------------Solution composition------------------------------

	Elements           Molality       Moles

	C                 4.815e-01   4.815e-01

----------------------------Description of solution----------------------------

                                       pH  =   3.175      Charge balance
                                       pe  =   4.000      Adjusted to redox equilibrium
      Specific Conductance (µS/cm,  23°C)  = 264
                          Density (g/cm³)  =   1.03194
                               Volume (L)  =   0.98959
                        Viscosity (mPa s)  =   0.96418
                        Activity of water  =   0.991
                 Ionic strength (mol/kgw)  =   6.920e-04
                       Mass of water (kg)  =   1.000e+00
                 Total alkalinity (eq/kg)  =   2.955e-15
                       Total CO2 (mol/kg)  =   4.815e-01
                         Temperature (°C)  =  23.00
                           Pressure (atm)  = 700.30
                  Electrical balance (eq)  =  -2.955e-15
 Percent error, 100*(Cat-|An|)/(Cat+|An|)  =  -0.00
                               Iterations  =   8
                         Gamma iterations  =   3
                      Osmotic coefficient  =   0.99474
                         Density of water  =   1.02754
                                  Total H  = 1.110132e+02
                                  Total O  = 5.646960e+01

----------------------------Distribution of species----------------------------

                                                    MacInnes  MacInnes
                                MacInnes       Log       Log       Log    mole V
   Species          Molality    Activity  Molality  Activity     Gamma   cm³/mol

   H+              6.920e-04   6.691e-04    -3.160    -3.175    -0.015      0.00
   OH-             2.295e-11   2.239e-11   -10.639   -10.650    -0.011     -1.74
   H2O             5.551e+01   9.914e-01     1.744    -0.004     0.000     17.53
C(4)          4.815e-01
   CO2             4.808e-01   4.758e-01    -0.318    -0.323    -0.005     34.06
   HCO3-           6.920e-04   6.750e-04    -3.160    -3.171    -0.011     24.89
   CO3-2           1.006e-10   9.001e-11    -9.997   -10.046    -0.048      0.27

------------------------------Saturation indices-------------------------------

  Phase               SI** log IAP   log K(296 K, 700 atm)

  CO2(g)            1.54     -0.32   -1.87  CO2
  H2O(g)           -1.34     -0.00    1.34  H2O

**For a gas, SI = log10(fugacity). Fugacity = pressure * phi / 1 atm.
  For ideal gases, phi = 1.

Reaction step 9.

Using solution 1.	
Using temperature 1.	
Using pressure 1.	

-----------------------------Solution composition------------------------------

	Elements           Molality       Moles

	C                 4.815e-01   4.815e-01

----------------------------Description of solution----------------------------

                                       pH  =   3.153      Charge balance
                                       pe  =   4.000      Adjusted to redox equilibrium
      Specific Conductance (µS/cm,  23°C)  = 280
                          Density (g/cm³)  =   1.03589
                               Volume (L)  =   0.98582
                        Viscosity (mPa s)  =   0.96508
                        Activity of water  =   0.991
                 Ionic strength (mol/kgw)  =   7.274e-04
                       Mass of water (kg)  =   1.000e+00
                 Total alkalinity (eq/kg)  =   2.715e-15
                       Total CO2 (mol/kg)  =   4.815e-01
                         Temperature (°C)  =  23.00
                           Pressure (atm)  = 800.20
                  Electrical balance (eq)  =  -2.715e-15
 Percent error, 100*(Cat-|An|)/(Cat+|An|)  =  -0.00
                               Iterations  =   8
                         Gamma iterations  =   3
                      Osmotic coefficient  =   0.99474
                         Density of water  =   1.03150
                                  Total H  = 1.110132e+02
                                  Total O  = 5.646960e+01

----------------------------Distribution of species----------------------------

                                                    MacInnes  MacInnes
                                MacInnes       Log       Log       Log    mole V
   Species          Molality    Activity  Molality  Activity     Gamma   cm³/mol

   H+              7.274e-04   7.029e-04    -3.138    -3.153    -0.015      0.00
   OH-             2.339e-11   2.281e-11   -10.631   -10.642    -0.011     -1.46
   H2O             5.551e+01   9.914e-01     1.744    -0.004     0.000     17.47
C(4)          4.815e-01
   CO2             4.808e-01   4.758e-01    -0.318    -0.323    -0.005     33.99
   HCO3-           7.274e-04   7.091e-04    -3.138    -3.149    -0.011     25.08
   CO3-2           1.101e-10   9.826e-11    -9.958   -10.008    -0.049      0.87

------------------------------Saturation indices-------------------------------

  Phase               SI** log IAP   log K(296 K, 800 atm)

  CO2(g)            1.60     -0.32   -1.93  CO2
  H2O(g)           -1.31     -0.00    1.31  H2O

**For a gas, SI = log10(fugacity). Fugacity = pressure * phi / 1 atm.
  For ideal gases, phi = 1.

Reaction step 10.

Using solution 1.	
Using temperature 1.	
Using pressure 1.	

-----------------------------Solution composition------------------------------

	Elements           Molality       Moles

	C                 4.815e-01   4.815e-01

----------------------------Description of solution----------------------------

                                       pH  =   3.132      Charge balance
                                       pe  =   4.000      Adjusted to redox equilibrium
      Specific Conductance (µS/cm,  23°C)  = 296
                          Density (g/cm³)  =   1.03977
                               Volume (L)  =   0.98214
                        Viscosity (mPa s)  =   0.96635
                        Activity of water  =   0.991
                 Ionic strength (mol/kgw)  =   7.637e-04
                       Mass of water (kg)  =   1.000e+00
                 Total alkalinity (eq/kg)  =   2.442e-15
                       Total CO2 (mol/kg)  =   4.815e-01
                         Temperature (°C)  =  23.00
                           Pressure (atm)  = 900.10
                  Electrical balance (eq)  =  -2.442e-15
 Percent error, 100*(Cat-|An|)/(Cat+|An|)  =  -0.00
                               Iterations  =   8
                         Gamma iterations  =   3
                      Osmotic coefficient  =   0.99473
                         Density of water  =   1.03539
                                  Total H  = 1.110132e+02
                                  Total O  = 5.646960e+01

----------------------------Distribution of species----------------------------

                                                    MacInnes  MacInnes
                                MacInnes       Log       Log       Log    mole V
   Species          Molality    Activity  Molality  Activity     Gamma   cm³/mol

   H+              7.637e-04   7.375e-04    -3.117    -3.132    -0.015      0.00
   OH-             2.382e-11   2.321e-11   -10.623   -10.634    -0.011     -1.20
   H2O             5.551e+01   9.914e-01     1.744    -0.004     0.000     17.40
C(4)          4.815e-01
   CO2             4.807e-01   4.757e-01    -0.318    -0.323    -0.005     33.91
   HCO3-           7.637e-04   7.441e-04    -3.117    -3.128    -0.011     25.27
   CO3-2           1.202e-10   1.070e-10    -9.920    -9.971    -0.050      1.45

------------------------------Saturation indices-------------------------------

  Phase               SI** log IAP   log K(296 K, 900 atm)

  CO2(g)            1.66     -0.32   -1.99  CO2
  H2O(g)           -1.28     -0.00    1.27  H2O

**For a gas, SI = log10(fugacity). Fugacity = pressure * phi / 1 atm.
  For ideal gases, phi = 1.

Reaction step 11.

Using solution 1.	
Using temperature 1.	
Using pressure 1.	

-----------------------------Solution composition------------------------------

	Elements           Molality       Moles

	C                 4.815e-01   4.815e-01

----------------------------Description of solution----------------------------

                                       pH  =   3.112      Charge balance
                                       pe  =   4.000      Adjusted to redox equilibrium
      Specific Conductance (µS/cm,  23°C)  = 312
                          Density (g/cm³)  =   1.04360
                               Volume (L)  =   0.97853
                        Viscosity (mPa s)  =   0.96799
                        Activity of water  =   0.991
                 Ionic strength (mol/kgw)  =   8.009e-04
                       Mass of water (kg)  =   1.000e+00
                 Total alkalinity (eq/kg)  =   2.148e-15
                       Total CO2 (mol/kg)  =   4.815e-01
                         Temperature (°C)  =  23.00
                           Pressure (atm)  = 1000.00
                  Electrical balance (eq)  =  -2.148e-15
 Percent error, 100*(Cat-|An|)/(Cat+|An|)  =  -0.00
                               Iterations  =   8
                         Gamma iterations  =   3
                      Osmotic coefficient  =   0.99473
                         Density of water  =   1.03923
                                  Total H  = 1.110132e+02
                                  Total O  = 5.646960e+01

----------------------------Distribution of species----------------------------

                                                    MacInnes  MacInnes
                                MacInnes       Log       Log       Log    mole V
   Species          Molality    Activity  Molality  Activity     Gamma   cm³/mol

   H+              8.009e-04   7.731e-04    -3.096    -3.112    -0.015      0.00
   OH-             2.423e-11   2.359e-11   -10.616   -10.627    -0.012     -0.95
   H2O             5.551e+01   9.914e-01     1.744    -0.004     0.000     17.34
C(4)          4.815e-01
   CO2             4.807e-01   4.757e-01    -0.318    -0.323    -0.005     33.84
   HCO3-           8.009e-04   7.799e-04    -3.096    -3.108    -0.012     25.45
   CO3-2           1.309e-10   1.162e-10    -9.883    -9.935    -0.052      1.99

------------------------------Saturation indices-------------------------------

  Phase               SI** log IAP   log K(296 K, 1000 atm)

  CO2(g)            1.72     -0.32   -2.05  CO2
  H2O(g)           -1.25     -0.00    1.25  H2O

**For a gas, SI = log10(fugacity). Fugacity = pressure * phi / 1 atm.
  For ideal gases, phi = 1.

------------------
End of simulation.
------------------

------------------------------------
Reading input data for simulation 3.
------------------------------------

	USE solution 1
	 USE reaction_pressure 1
	REACTION_TEMPERATURE 1
	50.3
	END
-----------------------------------------
Beginning of batch-reaction calculations.
-----------------------------------------

Reaction step 1.

Using solution 1.	
Using temperature 1.	
Using pressure 1.	

-----------------------------Solution composition------------------------------

	Elements           Molality       Moles

	C                 4.815e-01   4.815e-01

----------------------------Description of solution----------------------------

                                       pH  =   3.309      Charge balance
                                       pe  =   4.000      Adjusted to redox equilibrium
      Specific Conductance (µS/cm,  50°C)  = 252
                          Density (g/cm³)  =   0.99186
                               Volume (L)  =   1.02958
                        Viscosity (mPa s)  =   0.55451
                        Activity of water  =   0.992
                 Ionic strength (mol/kgw)  =   5.072e-04
                       Mass of water (kg)  =   1.000e+00
                 Total alkalinity (eq/kg)  =   1.282e-14
                       Total CO2 (mol/kg)  =   4.815e-01
                         Temperature (°C)  =  50.30
                  Electrical balance (eq)  =  -1.282e-14
 Percent error, 100*(Cat-|An|)/(Cat+|An|)  =  -0.00
                               Iterations  =   8
                         Gamma iterations  =   3
                      Osmotic coefficient  =   0.98112
                         Density of water  =   0.98789
                                  Total H  = 1.110132e+02
                                  Total O  = 5.646960e+01

----------------------------Distribution of species----------------------------

                                                    MacInnes  MacInnes
                                MacInnes       Log       Log       Log    mole V
   Species          Molality    Activity  Molality  Activity     Gamma   cm³/mol

   H+              5.072e-04   4.913e-04    -3.295    -3.309    -0.014      0.00
   OH-             1.150e-10   1.125e-10    -9.939    -9.949    -0.010     -3.81
   H2O             5.551e+01   9.915e-01     1.744    -0.004     0.000     18.24
C(4)          4.815e-01
   CO2             4.810e-01   4.632e-01    -0.318    -0.334    -0.016     35.99
   HCO3-           5.072e-04   4.959e-04    -3.295    -3.305    -0.010     24.62
   CO3-2           7.327e-11   6.612e-11   -10.135   -10.180    -0.045     -4.13

------------------------------Saturation indices-------------------------------

  Phase               SI** log IAP   log K(323 K,   1 atm)

  CO2(g)            1.38     -0.33   -1.71  CO2
  H2O(g)           -0.91     -0.00    0.91  H2O

**For a gas, SI = log10(fugacity). Fugacity = pressure * phi / 1 atm.
  For ideal gases, phi = 1.

Reaction step 2.

Using solution 1.	
Using temperature 1.	
Using pressure 1.	

-----------------------------Solution composition------------------------------

	Elements           Molality       Moles

	C                 4.815e-01   4.815e-01

----------------------------Description of solution----------------------------

                                       pH  =   3.285      Charge balance
                                       pe  =   4.000      Adjusted to redox equilibrium
      Specific Conductance (µS/cm,  50°C)  = 267
                          Density (g/cm³)  =   0.99620
                               Volume (L)  =   1.02509
                        Viscosity (mPa s)  =   0.55664
                        Activity of water  =   0.992
                 Ionic strength (mol/kgw)  =   5.360e-04
                       Mass of water (kg)  =   1.000e+00
                 Total alkalinity (eq/kg)  =   1.348e-14
                       Total CO2 (mol/kg)  =   4.815e-01
                         Temperature (°C)  =  50.30
                           Pressure (atm)  = 100.90
                  Electrical balance (eq)  =  -1.348e-14
 Percent error, 100*(Cat-|An|)/(Cat+|An|)  =  -0.00
                               Iterations  =   8
                         Gamma iterations  =   3
                      Osmotic coefficient  =   0.98112
                         Density of water  =   0.99221
                                  Total H  = 1.110132e+02
                                  Total O  = 5.646960e+01

----------------------------Distribution of species----------------------------

                                                    MacInnes  MacInnes
                                MacInnes       Log       Log       Log    mole V
   Species          Molality    Activity  Molality  Activity     Gamma   cm³/mol

   H+              5.360e-04   5.189e-04    -3.271    -3.285    -0.014      0.00
   OH-             1.184e-10   1.157e-10    -9.927    -9.937    -0.010     -3.93
   H2O             5.551e+01   9.915e-01     1.744    -0.004     0.000     18.16
C(4)          4.815e-01
   CO2             4.810e-01   4.631e-01    -0.318    -0.334    -0.016     35.83
   HCO3-           5.360e-04   5.237e-04    -3.271    -3.281    -0.010     24.96
   CO3-2           8.166e-11   7.351e-11   -10.088   -10.134    -0.046     -3.17

------------------------------Saturation indices-------------------------------

  Phase               SI** log IAP   log K(323 K, 101 atm)

  CO2(g)            1.44     -0.33   -1.77  CO2
  H2O(g)           -0.88     -0.00    0.88  H2O

**For a gas, SI = log10(fugacity). Fugacity = pressure * phi / 1 atm.
  For ideal gases, phi = 1.

Reaction step 3.

Using solution 1.	
Using temperature 1.	
Using pressure 1.	

-----------------------------Solution composition------------------------------

	Elements           Molality       Moles

	C                 4.815e-01   4.815e-01

----------------------------Description of solution----------------------------

                                       pH  =   3.262      Charge balance
                                       pe  =   4.000      Adjusted to redox equilibrium
      Specific Conductance (µS/cm,  50°C)  = 283
                          Density (g/cm³)  =   1.00046
                               Volume (L)  =   1.02073
                        Viscosity (mPa s)  =   0.55884
                        Activity of water  =   0.992
                 Ionic strength (mol/kgw)  =   5.652e-04
                       Mass of water (kg)  =   1.000e+00
                 Total alkalinity (eq/kg)  =   1.413e-14
                       Total CO2 (mol/kg)  =   4.815e-01
                         Temperature (°C)  =  50.30
                           Pressure (atm)  = 200.80
                  Electrical balance (eq)  =  -1.413e-14
 Percent error, 100*(Cat-|An|)/(Cat+|An|)  =  -0.00
                               Iterations  =   8
                         Gamma iterations  =   3
                      Osmotic coefficient  =   0.98112
                         Density of water  =   0.99646
                                  Total H  = 1.110132e+02
                                  Total O  = 5.646960e+01

----------------------------Distribution of species----------------------------

                                                    MacInnes  MacInnes
                                MacInnes       Log       Log       Log    mole V
   Species          Molality    Activity  Molality  Activity     Gamma   cm³/mol

   H+              5.652e-04   5.469e-04    -3.248    -3.262    -0.014      0.00
   OH-             1.222e-10   1.193e-10    -9.913    -9.923    -0.010     -4.03
   H2O             5.551e+01   9.915e-01     1.744    -0.004     0.000     18.08
C(4)          4.815e-01
   CO2             4.809e-01   4.631e-01    -0.318    -0.334    -0.016     35.68
   HCO3-           5.652e-04   5.519e-04    -3.248    -3.258    -0.010     25.29
   CO3-2           9.061e-11   8.137e-11   -10.043   -10.090    -0.047     -2.28

------------------------------Saturation indices-------------------------------

  Phase               SI** log IAP   log K(323 K, 201 atm)

  CO2(g)            1.50     -0.33   -1.83  CO2
  H2O(g)           -0.85     -0.00    0.85  H2O

**For a gas, SI = log10(fugacity). Fugacity = pressure * phi / 1 atm.
  For ideal gases, phi = 1.

Reaction step 4.

Using solution 1.	
Using temperature 1.	
Using pressure 1.	

-----------------------------Solution composition------------------------------

	Elements           Molality       Moles

	C                 4.815e-01   4.815e-01

----------------------------Description of solution----------------------------

                                       pH  =   3.240      Charge balance
                                       pe  =   4.000      Adjusted to redox equilibrium
      Specific Conductance (µS/cm,  50°C)  = 299
                          Density (g/cm³)  =   1.00465
                               Volume (L)  =   1.01648
                        Viscosity (mPa s)  =   0.56111
                        Activity of water  =   0.992
                 Ionic strength (mol/kgw)  =   5.949e-04
                       Mass of water (kg)  =   1.000e+00
                 Total alkalinity (eq/kg)  =   1.474e-14
                       Total CO2 (mol/kg)  =   4.815e-01
                         Temperature (°C)  =  50.30
                           Pressure (atm)  = 300.70
                  Electrical balance (eq)  =  -1.474e-14
 Percent error, 100*(Cat-|An|)/(Cat+|An|)  =  -0.00
                               Iterations  =   8
                         Gamma iterations  =   3
                      Osmotic coefficient  =   0.98113
                         Density of water  =   1.00063
                                  Total H  = 1.110132e+02
                                  Total O  = 5.646960e+01

----------------------------Distribution of species----------------------------

                                                    MacInnes  MacInnes
                                MacInnes       Log       Log       Log    mole V
   Species          Molality    Activity  Molality  Activity     Gamma   cm³/mol

   H+              5.949e-04   5.752e-04    -3.226    -3.240    -0.015      0.00
   OH-             1.263e-10   1.233e-10    -9.898    -9.909    -0.011     -4.12
   H2O             5.551e+01   9.915e-01     1.744    -0.004     0.000     18.00
C(4)          4.815e-01
   CO2             4.809e-01   4.631e-01    -0.318    -0.334    -0.016     35.54
   HCO3-           5.949e-04   5.805e-04    -3.226    -3.236    -0.011     25.59
   CO3-2           1.001e-10   8.972e-11    -9.999   -10.047    -0.048     -1.44

------------------------------Saturation indices-------------------------------

  Phase               SI** log IAP   log K(323 K, 301 atm)

  CO2(g)            1.55     -0.33   -1.89  CO2
  H2O(g)           -0.82     -0.00    0.82  H2O

**For a gas, SI = log10(fugacity). Fugacity = pressure * phi / 1 atm.
  For ideal gases, phi = 1.

Reaction step 5.

Using solution 1.	
Using temperature 1.	
Using pressure 1.	

-----------------------------Solution composition------------------------------

	Elements           Molality       Moles

	C                 4.815e-01   4.815e-01

----------------------------Description of solution----------------------------

                                       pH  =   3.219      Charge balance
                                       pe  =   4.000      Adjusted to redox equilibrium
      Specific Conductance (µS/cm,  50°C)  = 316
                          Density (g/cm³)  =   1.00875
                               Volume (L)  =   1.01234
                        Viscosity (mPa s)  =   0.56346
                        Activity of water  =   0.992
                 Ionic strength (mol/kgw)  =   6.250e-04
                       Mass of water (kg)  =   1.000e+00
                 Total alkalinity (eq/kg)  =   1.532e-14
                       Total CO2 (mol/kg)  =   4.815e-01
                         Temperature (°C)  =  50.30
                           Pressure (atm)  = 400.60
                  Electrical balance (eq)  =  -1.532e-14
 Percent error, 100*(Cat-|An|)/(Cat+|An|)  =  -0.00
                               Iterations  =   8
                         Gamma iterations  =   3
                      Osmotic coefficient  =   0.98113
                         Density of water  =   1.00472
                                  Total H  = 1.110132e+02
                                  Total O  = 5.646960e+01

----------------------------Distribution of species----------------------------

                                                    MacInnes  MacInnes
                                MacInnes       Log       Log       Log    mole V
   Species          Molality    Activity  Molality  Activity     Gamma   cm³/mol

   H+              6.250e-04   6.040e-04    -3.204    -3.219    -0.015      0.00
   OH-             1.309e-10   1.276e-10    -9.883    -9.894    -0.011     -4.20
   H2O             5.551e+01   9.915e-01     1.744    -0.004     0.000     17.93
C(4)          4.815e-01
   CO2             4.809e-01   4.630e-01    -0.318    -0.334    -0.016     35.40
   HCO3-           6.250e-04   6.096e-04    -3.204    -3.215    -0.011     25.88
   CO3-2           1.103e-10   9.857e-11    -9.957   -10.006    -0.049     -0.65

------------------------------Saturation indices-------------------------------

  Phase               SI** log IAP   log K(323 K, 401 atm)

  CO2(g)            1.61     -0.33   -1.94  CO2
  H2O(g)           -0.80     -0.00    0.79  H2O

**For a gas, SI = log10(fugacity). Fugacity = pressure * phi / 1 atm.
  For ideal gases, phi = 1.

Reaction step 6.

Using solution 1.	
Using temperature 1.	
Using pressure 1.	

-----------------------------Solution composition------------------------------

	Elements           Molality       Moles

	C                 4.815e-01   4.815e-01

----------------------------Description of solution----------------------------

                                       pH  =   3.198      Charge balance
                                       pe  =   4.000      Adjusted to redox equilibrium
      Specific Conductance (µS/cm,  50°C)  = 332
                          Density (g/cm³)  =   1.01278
                               Volume (L)  =   1.00832
                        Viscosity (mPa s)  =   0.56589
                        Activity of water  =   0.992
                 Ionic strength (mol/kgw)  =   6.556e-04
                       Mass of water (kg)  =   1.000e+00
                 Total alkalinity (eq/kg)  =   1.586e-14
                       Total CO2 (mol/kg)  =   4.815e-01
                         Temperature (°C)  =  50.30
                           Pressure (atm)  = 500.50
                  Electrical balance (eq)  =  -1.586e-14
 Percent error, 100*(Cat-|An|)/(Cat+|An|)  =  -0.00
                               Iterations  =   8
                         Gamma iterations  =   3
                      Osmotic coefficient  =   0.98113
                         Density of water  =   1.00873
                                  Total H  = 1.110132e+02
                                  Total O  = 5.646960e+01

----------------------------Distribution of species----------------------------

                                                    MacInnes  MacInnes
                                MacInnes       Log       Log       Log    mole V
   Species          Molality    Activity  Molality  Activity     Gamma   cm³/mol

   H+              6.556e-04   6.332e-04    -3.183    -3.198    -0.015      0.00
   OH-             1.358e-10   1.323e-10    -9.867    -9.878    -0.011     -4.27
   H2O             5.551e+01   9.915e-01     1.744    -0.004     0.000     17.86
C(4)          4.815e-01
   CO2             4.808e-01   4.630e-01    -0.318    -0.334    -0.016     35.27
   HCO3-           6.556e-04   6.390e-04    -3.183    -3.195    -0.011     26.15
   CO3-2           1.211e-10   1.080e-10    -9.917    -9.967    -0.050      0.10

------------------------------Saturation indices-------------------------------

  Phase               SI** log IAP   log K(323 K, 501 atm)

  CO2(g)            1.67     -0.33   -2.00  CO2
  H2O(g)           -0.77     -0.00    0.76  H2O

**For a gas, SI = log10(fugacity). Fugacity = pressure * phi / 1 atm.
  For ideal gases, phi = 1.

Reaction step 7.

Using solution 1.	
Using temperature 1.	
Using pressure 1.	

-----------------------------Solution composition------------------------------

	Elements           Molality       Moles

	C                 4.815e-01   4.815e-01

----------------------------Description of solution----------------------------

                                       pH  =   3.179      Charge balance
                                       pe  =   4.000      Adjusted to redox equilibrium
      Specific Conductance (µS/cm,  50°C)  = 349
                          Density (g/cm³)  =   1.01672
[...]
   Species          Molality    Activity  Molality  Activity     Gamma   cm³/mol

   H+              3.615e-04   3.471e-04    -3.442    -3.460    -0.018      0.00
   OH-             1.444e-08   1.413e-08    -7.840    -7.850    -0.009    -17.31
   H2O             5.551e+01   9.843e-01     1.744    -0.007     0.000     19.82
C(4)          9.480e-01
   CO2             9.476e-01   8.193e-01    -0.023    -0.087    -0.063     46.87
   HCO3-           3.615e-04   3.537e-04    -3.442    -3.451    -0.009     18.59
   CO3-2           4.073e-11   3.651e-11   -10.390   -10.438    -0.047    -21.10

------------------------------Saturation indices-------------------------------

  Phase               SI** log IAP   log K(449 K, 301 atm)

  CO2(g)            2.15     -0.09   -2.23  CO2
  H2O(g)            1.00     -0.01   -1.00  H2O

**For a gas, SI = log10(fugacity). Fugacity = pressure * phi / 1 atm.
  For ideal gases, phi = 1.

Reaction step 5.

Using solution 1.	
Using temperature 1.	
Using pressure 1.	

-----------------------------Solution composition------------------------------

	Elements           Molality       Moles

	C                 9.480e-01   9.480e-01

----------------------------Description of solution----------------------------

                                       pH  =   3.436      Charge balance
                                       pe  =   4.000      Adjusted to redox equilibrium
      Specific Conductance (µS/cm, 176°C)  = 305
                          Density (g/cm³)  =   0.91645
                               Volume (L)  =   1.13671
                        Viscosity (mPa s)  =   0.16455
                        Activity of water  =   0.984
                 Ionic strength (mol/kgw)  =   3.820e-04
                       Mass of water (kg)  =   1.000e+00
                 Total alkalinity (eq/kg)  =  -6.461e-15
                       Total CO2 (mol/kg)  =   9.480e-01
                         Temperature (°C)  = 176.00
                           Pressure (atm)  = 400.60
                  Electrical balance (eq)  =   6.461e-15
 Percent error, 100*(Cat-|An|)/(Cat+|An|)  =   0.00
                               Iterations  =   7
                         Gamma iterations  =   3
                      Osmotic coefficient  =   0.92731
                         Density of water  =   0.91482
                                  Total H  = 1.110135e+02
                                  Total O  = 5.740275e+01

----------------------------Distribution of species----------------------------

                                                    MacInnes  MacInnes
                                MacInnes       Log       Log       Log    mole V
   Species          Molality    Activity  Molality  Activity     Gamma   cm³/mol

   H+              3.820e-04   3.666e-04    -3.418    -3.436    -0.018      0.00
   OH-             1.509e-08   1.476e-08    -7.821    -7.831    -0.010    -17.20
   H2O             5.551e+01   9.843e-01     1.744    -0.007     0.000     19.69
C(4)          9.480e-01
   CO2             9.476e-01   8.193e-01    -0.023    -0.087    -0.063     46.00
   HCO3-           3.820e-04   3.736e-04    -3.418    -3.428    -0.010     19.51
   CO3-2           4.478e-11   4.006e-11   -10.349   -10.397    -0.048    -18.80

------------------------------Saturation indices-------------------------------

  Phase               SI** log IAP   log K(449 K, 401 atm)

  CO2(g)            2.20     -0.09   -2.29  CO2
  H2O(g)            1.02     -0.01   -1.03  H2O

**For a gas, SI = log10(fugacity). Fugacity = pressure * phi / 1 atm.
  For ideal gases, phi = 1.

Reaction step 6.

Using solution 1.	
Using temperature 1.	
Using pressure 1.	

-----------------------------Solution composition------------------------------

	Elements           Molality       Moles

	C                 9.480e-01   9.480e-01

----------------------------Description of solution----------------------------

                                       pH  =   3.414      Charge balance
                                       pe  =   4.000      Adjusted to redox equilibrium
      Specific Conductance (µS/cm, 176°C)  = 320
                          Density (g/cm³)  =   0.92230
                               Volume (L)  =   1.12949
                        Viscosity (mPa s)  =   0.16711
                        Activity of water  =   0.984
                 Ionic strength (mol/kgw)  =   4.021e-04
                       Mass of water (kg)  =   1.000e+00
                 Total alkalinity (eq/kg)  =  -6.363e-15
                       Total CO2 (mol/kg)  =   9.480e-01
                         Temperature (°C)  = 176.00
                           Pressure (atm)  = 500.50
                  Electrical balance (eq)  =   6.363e-15
 Percent error, 100*(Cat-|An|)/(Cat+|An|)  =   0.00
                               Iterations  =   8
                         Gamma iterations  =   3
                      Osmotic coefficient  =   0.92731
                         Density of water  =   0.92026
                                  Total H  = 1.110135e+02
                                  Total O  = 5.740275e+01

----------------------------Distribution of species----------------------------

                                                    MacInnes  MacInnes
                                MacInnes       Log       Log       Log    mole V
   Species          Molality    Activity  Molality  Activity     Gamma   cm³/mol

   H+              4.021e-04   3.857e-04    -3.396    -3.414    -0.018      0.00
   OH-             1.582e-08   1.546e-08    -7.801    -7.811    -0.010    -17.12
   H2O             5.551e+01   9.843e-01     1.744    -0.007     0.000     19.58
C(4)          9.480e-01
   CO2             9.476e-01   8.193e-01    -0.023    -0.087    -0.063     45.20
   HCO3-           4.021e-04   3.930e-04    -3.396    -3.406    -0.010     20.36
   CO3-2           4.894e-11   4.369e-11   -10.310   -10.360    -0.049    -16.69

------------------------------Saturation indices-------------------------------

  Phase               SI** log IAP   log K(449 K, 501 atm)

  CO2(g)            2.25     -0.09   -2.34  CO2
  H2O(g)            1.04     -0.01   -1.05  H2O

**For a gas, SI = log10(fugacity). Fugacity = pressure * phi / 1 atm.
  For ideal gases, phi = 1.

Reaction step 7.

Using solution 1.	
Using temperature 1.	
Using pressure 1.	

-----------------------------Solution composition------------------------------

	Elements           Molality       Moles

	C                 9.480e-01   9.480e-01

----------------------------Description of solution----------------------------

                                       pH  =   3.393      Charge balance
                                       pe  =   4.000      Adjusted to redox equilibrium
      Specific Conductance (µS/cm, 176°C)  = 335
                          Density (g/cm³)  =   0.92792
                               Volume (L)  =   1.12265
                        Viscosity (mPa s)  =   0.16958
                        Activity of water  =   0.984
                 Ionic strength (mol/kgw)  =   4.216e-04
                       Mass of water (kg)  =   1.000e+00
                 Total alkalinity (eq/kg)  =  -6.265e-15
                       Total CO2 (mol/kg)  =   9.480e-01
                         Temperature (°C)  = 176.00
                           Pressure (atm)  = 600.40
                  Electrical balance (eq)  =   6.265e-15
 Percent error, 100*(Cat-|An|)/(Cat+|An|)  =   0.00
                               Iterations  =   8
                         Gamma iterations  =   3
                      Osmotic coefficient  =   0.92732
                         Density of water  =   0.92550
                                  Total H  = 1.110135e+02
                                  Total O  = 5.740275e+01

----------------------------Distribution of species----------------------------

                                                    MacInnes  MacInnes
                                MacInnes       Log       Log       Log    mole V
   Species          Molality    Activity  Molality  Activity     Gamma   cm³/mol

   H+              4.216e-04   4.042e-04    -3.375    -3.393    -0.018      0.00
   OH-             1.663e-08   1.625e-08    -7.779    -7.789    -0.010    -17.06
   H2O             5.551e+01   9.843e-01     1.744    -0.007     0.000     19.47
C(4)          9.480e-01
   CO2             9.476e-01   8.193e-01    -0.023    -0.087    -0.063     44.47
   HCO3-           4.216e-04   4.120e-04    -3.375    -3.385    -0.010     21.14
   CO3-2           5.321e-11   4.741e-11   -10.274   -10.324    -0.050    -14.76

------------------------------Saturation indices-------------------------------

  Phase               SI** log IAP   log K(449 K, 600 atm)

  CO2(g)            2.30     -0.09   -2.38  CO2
  H2O(g)            1.06     -0.01   -1.07  H2O

**For a gas, SI = log10(fugacity). Fugacity = pressure * phi / 1 atm.
  For ideal gases, phi = 1.

Reaction step 8.

Using solution 1.	
Using temperature 1.	
Using pressure 1.	

-----------------------------Solution composition------------------------------

	Elements           Molality       Moles

	C                 9.480e-01   9.480e-01

----------------------------Description of solution----------------------------

                                       pH  =   3.374      Charge balance
                                       pe  =   4.000      Adjusted to redox equilibrium
      Specific Conductance (µS/cm, 176°C)  = 349
                          Density (g/cm³)  =   0.93333
                               Volume (L)  =   1.11615
                        Viscosity (mPa s)  =   0.17198
                        Activity of water  =   0.984
                 Ionic strength (mol/kgw)  =   4.407e-04
                       Mass of water (kg)  =   1.000e+00
                 Total alkalinity (eq/kg)  =  -6.192e-15
                       Total CO2 (mol/kg)  =   9.480e-01
                         Temperature (°C)  = 176.00
                           Pressure (atm)  = 700.30
                  Electrical balance (eq)  =   6.192e-15
 Percent error, 100*(Cat-|An|)/(Cat+|An|)  =   0.00
                               Iterations  =   9
                         Gamma iterations  =   3
                      Osmotic coefficient  =   0.92732
                         Density of water  =   0.93056
                                  Total H  = 1.110135e+02
                                  Total O  = 5.740275e+01

----------------------------Distribution of species----------------------------

                                                    MacInnes  MacInnes
                                MacInnes       Log       Log       Log    mole V
   Species          Molality    Activity  Molality  Activity     Gamma   cm³/mol

   H+              4.407e-04   4.224e-04    -3.356    -3.374    -0.019      0.00
   OH-             1.754e-08   1.713e-08    -7.756    -7.766    -0.010    -17.03
   H2O             5.551e+01   9.843e-01     1.744    -0.007     0.000     19.36
C(4)          9.480e-01
   CO2             9.476e-01   8.193e-01    -0.023    -0.087    -0.063     43.80
   HCO3-           4.407e-04   4.304e-04    -3.356    -3.366    -0.010     21.85
   CO3-2           5.758e-11   5.121e-11   -10.240   -10.291    -0.051    -12.99

------------------------------Saturation indices-------------------------------

  Phase               SI** log IAP   log K(449 K, 700 atm)

  CO2(g)            2.34     -0.09   -2.43  CO2
  H2O(g)            1.09     -0.01   -1.09  H2O

**For a gas, SI = log10(fugacity). Fugacity = pressure * phi / 1 atm.
  For ideal gases, phi = 1.

Reaction step 9.

Using solution 1.	
Using temperature 1.	
Using pressure 1.	

-----------------------------Solution composition------------------------------

	Elements           Molality       Moles

	C                 9.480e-01   9.480e-01

----------------------------Description of solution----------------------------

                                       pH  =   3.356      Charge balance
                                       pe  =   4.000      Adjusted to redox equilibrium
      Specific Conductance (µS/cm, 176°C)  = 363
                          Density (g/cm³)  =   0.93855
                               Volume (L)  =   1.10994
                        Viscosity (mPa s)  =   0.17433
                        Activity of water  =   0.984
                 Ionic strength (mol/kgw)  =   4.594e-04
                       Mass of water (kg)  =   1.000e+00
                 Total alkalinity (eq/kg)  =  -6.143e-15
                       Total CO2 (mol/kg)  =   9.480e-01
                         Temperature (°C)  = 176.00
                           Pressure (atm)  = 800.20
                  Electrical balance (eq)  =   6.143e-15
 Percent error, 100*(Cat-|An|)/(Cat+|An|)  =   0.00
                               Iterations  =   9
                         Gamma iterations  =   3
                      Osmotic coefficient  =   0.92732
                         Density of water  =   0.93545
                                  Total H  = 1.110135e+02
                                  Total O  = 5.740275e+01

----------------------------Distribution of species----------------------------

                                                    MacInnes  MacInnes
                                MacInnes       Log       Log       Log    mole V
   Species          Molality    Activity  Molality  Activity     Gamma   cm³/mol

   H+              4.594e-04   4.401e-04    -3.338    -3.356    -0.019      0.00
   OH-             1.854e-08   1.810e-08    -7.732    -7.742    -0.010    -17.02
   H2O             5.551e+01   9.843e-01     1.744    -0.007     0.000     19.26
C(4)          9.480e-01
   CO2             9.475e-01   8.193e-01    -0.023    -0.087    -0.063     43.19
   HCO3-           4.594e-04   4.485e-04    -3.338    -3.348    -0.010     22.51
   CO3-2           6.205e-11   5.510e-11   -10.207   -10.259    -0.052    -11.35

------------------------------Saturation indices-------------------------------

  Phase               SI** log IAP   log K(449 K, 800 atm)

  CO2(g)            2.39     -0.09   -2.48  CO2
  H2O(g)            1.11     -0.01   -1.11  H2O

**For a gas, SI = log10(fugacity). Fugacity = pressure * phi / 1 atm.
  For ideal gases, phi = 1.

Reaction step 10.

Using solution 1.	
Using temperature 1.	
Using pressure 1.	

-----------------------------Solution composition------------------------------

	Elements           Molality       Moles

	C                 9.480e-01   9.480e-01

----------------------------Description of solution----------------------------

                                       pH  =   3.340      Charge balance
                                       pe  =   4.000      Adjusted to redox equilibrium
      Specific Conductance (µS/cm, 176°C)  = 377
                          Density (g/cm³)  =   0.94359
                               Volume (L)  =   1.10401
                        Viscosity (mPa s)  =   0.17664
                        Activity of water  =   0.984
                 Ionic strength (mol/kgw)  =   4.776e-04
                       Mass of water (kg)  =   1.000e+00
                 Total alkalinity (eq/kg)  =  -6.135e-15
                       Total CO2 (mol/kg)  =   9.480e-01
                         Temperature (°C)  = 176.00
                           Pressure (atm)  = 900.10
                  Electrical balance (eq)  =   6.135e-15
 Percent error, 100*(Cat-|An|)/(Cat+|An|)  =   0.00
                               Iterations  =   9
                         Gamma iterations  =   3
                      Osmotic coefficient  =   0.92733
                         Density of water  =   0.94019
                                  Total H  = 1.110135e+02
                                  Total O  = 5.740275e+01

----------------------------Distribution of species----------------------------

                                                    MacInnes  MacInnes
                                MacInnes       Log       Log       Log    mole V
   Species          Molality    Activity  Molality  Activity     Gamma   cm³/mol

   H+              4.776e-04   4.574e-04    -3.321    -3.340    -0.019      0.00
   OH-             1.964e-08   1.917e-08    -7.707    -7.717    -0.011    -17.02
   H2O             5.551e+01   9.843e-01     1.744    -0.007     0.000     19.16
C(4)          9.480e-01
   CO2             9.475e-01   8.192e-01    -0.023    -0.087    -0.063     42.62
   HCO3-           4.776e-04   4.661e-04    -3.321    -3.332    -0.011     23.12
   CO3-2           6.663e-11   5.908e-11   -10.176   -10.229    -0.052     -9.83

------------------------------Saturation indices-------------------------------

  Phase               SI** log IAP   log K(449 K, 900 atm)

  CO2(g)            2.43     -0.09   -2.52  CO2
  H2O(g)            1.13     -0.01   -1.14  H2O

**For a gas, SI = log10(fugacity). Fugacity = pressure * phi / 1 atm.
  For ideal gases, phi = 1.

Reaction step 11.

Using solution 1.	
Using temperature 1.	
Using pressure 1.	

-----------------------------Solution composition------------------------------

	Elements           Molality       Moles

	C                 9.480e-01   9.480e-01

----------------------------Description of solution----------------------------

                                       pH  =   3.324      Charge balance
                                       pe  =   4.000      Adjusted to redox equilibrium
      Specific Conductance (µS/cm, 176°C)  = 390
                          Density (g/cm³)  =   0.94848
                               Volume (L)  =   1.09832
                        Viscosity (mPa s)  =   0.17892
                        Activity of water  =   0.984
                 Ionic strength (mol/kgw)  =   4.955e-04
                       Mass of water (kg)  =   1.000e+00
                 Total alkalinity (eq/kg)  =  -6.171e-15
                       Total CO2 (mol/kg)  =   9.480e-01
                         Temperature (°C)  = 176.00
                           Pressure (atm)  = 1000.00
                  Electrical balance (eq)  =   6.171e-15
 Percent error, 100*(Cat-|An|)/(Cat+|An|)  =   0.00
                               Iterations  =   9
                         Gamma iterations  =   3
                      Osmotic coefficient  =   0.92733
                         Density of water  =   0.94481
                                  Total H  = 1.110135e+02
                                  Total O  = 5.740275e+01

----------------------------Distribution of species----------------------------

                                                    MacInnes  MacInnes
                                MacInnes       Log       Log       Log    mole V
   Species          Molality    Activity  Molality  Activity     Gamma   cm³/mol

   H+              4.955e-04   4.743e-04    -3.305    -3.324    -0.019      0.00
   OH-             2.086e-08   2.035e-08    -7.681    -7.691    -0.011    -17.04
   H2O             5.551e+01   9.843e-01     1.744    -0.007     0.000     19.07
C(4)          9.480e-01
   CO2             9.475e-01   8.192e-01    -0.023    -0.087    -0.063     42.10
   HCO3-           4.954e-04   4.834e-04    -3.305    -3.316    -0.011     23.69
   CO3-2           7.132e-11   6.315e-11   -10.147   -10.200    -0.053     -8.42

------------------------------Saturation indices-------------------------------

  Phase               SI** log IAP   log K(449 K, 1000 atm)

  CO2(g)            2.48     -0.09   -2.57  CO2
  H2O(g)            1.15     -0.01   -1.16  H2O

**For a gas, SI = log10(fugacity). Fugacity = pressure * phi / 1 atm.
  For ideal gases, phi = 1.

------------------
End of simulation.
------------------

-------------------------------------
Reading input data for simulation 17.
-------------------------------------

	SOLUTION 1
	temp 1.5
	pH 4 charge
	C 1.546e3 # xC = 0.0271
	REACTION_PRESSURE 1
	1 1000 in 11
	PRINT
	 reset false
