WARNING: Database file from DATABASE keyword is used; command line argument ignored.
   Input file: millero
  Output file: millero.out
Database file: ../database/phreeqc.dat

------------------
Reading data base.
------------------

	SOLUTION_MASTER_SPECIES
	SOLUTION_SPECIES
	PHASES
	GAS_BINARY_PARAMETERS
	EXCHANGE_MASTER_SPECIES
	EXCHANGE_SPECIES
	SURFACE_MASTER_SPECIES
	SURFACE_SPECIES
	MEAN_GAMMAS
	RATES
	END
------------------------------------
Reading input data for simulation 1.
------------------------------------

	DATABASE ../database/phreeqc.dat
	SELECTED_OUTPUT 101
	    file                 millero_101.sel
	USER_PUNCH 101
	    headings Mu SC
	    start
	10 PUNCH STR_F$(MU, 20, 12)
	20 PUNCH STR_F$(SC, 20, 10)
	    end
	SELECTED_OUTPUT
	   file millero.csv
	   reset false
	USER_PUNCH
	headings tc rho
	start
	10 punch TC, RHO
	end
	SOLUTION 1  SEAWATER FROM Millero 2008
	        units   ppt
	        pH      8.1
	        temp    25.0
	        Na              10.78145
	        Mg              1.28372
	        Ca              0.41208
	        K               0.39910
	        Sr              0.00795
	        Cl              19.35271
	        S(6)            2.71235
	        Alkalinity      .140346 as HCO3
	        Br              0.06728
	        F               0.00130
	        B               0.004489072
	END
-------------------------------------------
Beginning of initial solution calculations.
-------------------------------------------

Initial solution 1.	SEAWATER FROM Millero 2008

-----------------------------Solution composition------------------------------

	Elements           Molality       Moles

	Alkalinity        2.384e-03   2.384e-03
	B                 4.304e-04   4.304e-04
	Br                8.727e-04   8.727e-04
	Ca                1.066e-02   1.066e-02
	Cl                5.658e-01   5.658e-01
	F                 7.092e-05   7.092e-05
	K                 1.058e-02   1.058e-02
	Mg                5.473e-02   5.473e-02
	Na                4.861e-01   4.861e-01
	S(6)              2.926e-02   2.926e-02
	Sr                9.404e-05   9.404e-05

----------------------------Description of solution----------------------------

                                       pH  =   8.100    
                                       pe  =   4.000    
      Specific Conductance (µS/cm,  25°C)  = 52980
                          Density (g/cm³)  =   1.02332
                               Volume (L)  =   1.01283
                        Viscosity (mPa s)  =   0.95661
                        Activity of water  =   0.981
                 Ionic strength (mol/kgw)  =   6.741e-01
                       Mass of water (kg)  =   1.000e+00
                    Total carbon (mol/kg)  =   2.218e-03
                       Total CO2 (mol/kg)  =   2.218e-03
                         Temperature (°C)  =  25.00
                  Electrical balance (eq)  =  -2.913e-05
 Percent error, 100*(Cat-|An|)/(Cat+|An|)  =  -0.00
                               Iterations  =   9
                                  Total H  = 1.110158e+02
                                  Total O  = 5.563121e+01

----------------------------Distribution of species----------------------------

                                               Log       Log       Log    mole V
   Species          Molality    Activity  Molality  Activity     Gamma   cm³/mol

   OH-             2.052e-06   1.249e-06    -5.688    -5.903    -0.215     -2.63
   H+              1.052e-08   7.943e-09    -7.978    -8.100    -0.122      0.00
   H2O             5.551e+01   9.806e-01     1.744    -0.009     0.000     18.07
B             4.304e-04
   H3BO3           3.866e-04   4.515e-04    -3.413    -3.345     0.067     39.23
   H2BO3-          4.380e-05   3.271e-05    -4.359    -4.485    -0.127     (0)  
   BF(OH)3-        5.574e-09   4.162e-09    -8.254    -8.381    -0.127     (0)  
   BF2(OH)2-       1.120e-13   8.366e-14   -12.951   -13.077    -0.127     (0)  
   BF3OH-          2.304e-20   1.721e-20   -19.637   -19.764    -0.127     (0)  
   BF4-            1.761e-26   1.315e-26   -25.754   -25.881    -0.127     (0)  
Br            8.727e-04
   Br-             8.727e-04   5.492e-04    -3.059    -3.260    -0.201     25.23
C(4)          2.218e-03
   HCO3-           1.630e-03   1.114e-03    -2.788    -2.953    -0.165     28.02
   MgHCO3+         2.877e-04   1.809e-04    -3.541    -3.742    -0.201      5.82
   NaHCO3          1.489e-04   1.883e-04    -3.827    -3.725     0.102     17.66
   MgCO3           7.460e-05   8.712e-05    -4.127    -4.060     0.067    -17.09
   CO3-2           3.162e-05   6.577e-06    -4.500    -5.182    -0.682     -0.67
   CaCO3           2.343e-05   2.737e-05    -4.630    -4.563     0.067    -14.60
   CO2             1.831e-05   2.029e-05    -4.737    -4.693     0.044     34.79
   KHCO3           2.744e-06   3.205e-06    -5.562    -5.494     0.067     21.42
   SrHCO3+         5.287e-07   3.570e-07    -6.277    -6.447    -0.170     (0)  
   SrCO3           7.532e-08   8.797e-08    -7.123    -7.056     0.067    -14.13
   CaHCO3+         3.496e-10   2.419e-10    -9.456    -9.616    -0.160      9.96
   (CO2)2          6.042e-12   6.693e-12   -11.219   -11.174     0.044     68.75
Ca            1.066e-02
   Ca+2            9.905e-03   2.477e-03    -2.004    -2.606    -0.602    -16.70
   CaSO4           7.278e-04   7.798e-04    -3.138    -3.108     0.030      7.22
   CaCO3           2.343e-05   2.737e-05    -4.630    -4.563     0.067    -14.60
   CaOH+           6.794e-08   5.074e-08    -7.168    -7.295    -0.127     (0)  
   CaHCO3+         3.496e-10   2.419e-10    -9.456    -9.616    -0.160      9.96
   CaHSO4+         6.951e-11   5.191e-11   -10.158   -10.285    -0.127     (0)  
Cl            5.658e-01
   Cl-             5.658e-01   3.569e-01    -0.247    -0.447    -0.200     18.79
   HCl             5.044e-10   9.765e-10    -9.297    -9.010     0.287     20.36
F             7.092e-05
   F-              3.803e-05   2.316e-05    -4.420    -4.635    -0.215      0.23
   MgF+            3.283e-05   2.124e-05    -4.484    -4.673    -0.189    -10.25
   KF              3.742e-08   3.705e-08    -7.427    -7.431    -0.004     -0.32
   NaF             2.404e-08   3.279e-08    -7.619    -7.484     0.135      7.60
   BF(OH)3-        5.574e-09   4.162e-09    -8.254    -8.381    -0.127     (0)  
   HF              2.362e-10   2.759e-10    -9.627    -9.559     0.067     12.50
   BF2(OH)2-       1.120e-13   8.366e-14   -12.951   -13.077    -0.127     (0)  
   HF2-            3.282e-14   2.451e-14   -13.484   -13.611    -0.127     22.81
   BF3OH-          2.304e-20   1.721e-20   -19.637   -19.764    -0.127     (0)  
   BF4-            1.761e-26   1.315e-26   -25.754   -25.881    -0.127     (0)  
H(0)          7.590e-28
   H2              3.795e-28   4.467e-28   -27.421   -27.350     0.071     14.99
K             1.058e-02
   K+              1.033e-02   6.440e-03    -1.986    -2.191    -0.205      9.66
   KSO4-           2.439e-04   2.212e-04    -3.613    -3.655    -0.042     35.14
   KHCO3           2.744e-06   3.205e-06    -5.562    -5.494     0.067     21.42
   KF              3.742e-08   3.705e-08    -7.427    -7.431    -0.004     -0.32
Mg            5.473e-02
   Mg+2            4.809e-02   1.388e-02    -1.318    -1.858    -0.540    -20.41
   MgSO4           6.015e-03   8.204e-03    -2.221    -2.086     0.135     -0.40
   MgHCO3+         2.877e-04   1.809e-04    -3.541    -3.742    -0.201      5.82
   Mg(SO4)2-2      2.156e-04   6.100e-05    -3.666    -4.215    -0.548     48.72
   MgCO3           7.460e-05   8.712e-05    -4.127    -4.060     0.067    -17.09
   MgF+            3.283e-05   2.124e-05    -4.484    -4.673    -0.189    -10.25
   MgOH+           8.830e-06   6.221e-06    -5.054    -5.206    -0.152     (0)  
Na            4.861e-01
   Na+             4.765e-01   3.419e-01    -0.322    -0.466    -0.144     -0.50
   NaSO4-          9.428e-03   6.781e-03    -2.026    -2.169    -0.143     21.71
   NaHCO3          1.489e-04   1.883e-04    -3.827    -3.725     0.102     17.66
   Na2SO4          9.854e-07   1.130e-06    -6.006    -5.947     0.060     47.96
   NaF             2.404e-08   3.279e-08    -7.619    -7.484     0.135      7.60
O(0)          3.581e-38
   O2              1.791e-38   2.091e-38   -37.747   -37.680     0.067     30.40
S(6)          2.926e-02
   SO4-2           1.241e-02   2.257e-03    -1.906    -2.646    -0.740     17.12
   NaSO4-          9.428e-03   6.781e-03    -2.026    -2.169    -0.143     21.71
   MgSO4           6.015e-03   8.204e-03    -2.221    -2.086     0.135     -0.40
   CaSO4           7.278e-04   7.798e-04    -3.138    -3.108     0.030      7.22
   KSO4-           2.439e-04   2.212e-04    -3.613    -3.655    -0.042     35.14
   Mg(SO4)2-2      2.156e-04   6.100e-05    -3.666    -4.215    -0.548     48.72
   SrSO4           7.896e-06   9.221e-06    -5.103    -5.035     0.067     24.24
   Na2SO4          9.854e-07   1.130e-06    -6.006    -5.947     0.060     47.96
   HSO4-           2.334e-09   1.743e-09    -8.632    -8.759    -0.127     40.96
   CaHSO4+         6.951e-11   5.191e-11   -10.158   -10.285    -0.127     (0)  
Sr            9.404e-05
   Sr+2            8.554e-05   2.095e-05    -4.068    -4.679    -0.611    -16.43
   SrSO4           7.896e-06   9.221e-06    -5.103    -5.035     0.067     24.24
   SrHCO3+         5.287e-07   3.570e-07    -6.277    -6.447    -0.170     (0)  
   SrCO3           7.532e-08   8.797e-08    -7.123    -7.056     0.067    -14.13
   SrOH+           2.000e-10   1.326e-10    -9.699    -9.877    -0.178     (0)  

------------------------------Saturation indices-------------------------------

  Phase               SI** log IAP   log K(298 K,   1 atm)

  Anhydrite        -0.94     -5.25   -4.31  CaSO4
  Aragonite         0.55     -7.79   -8.34  CaCO3
  Arcanite         -5.15     -7.03   -1.88  K2SO4
  Calcite           0.66     -7.79   -8.45  CaCO3
  Celestite        -0.67     -7.33   -6.66  SrSO4
  CO2(g)           -3.22     -4.69   -1.47  CO2
  Dolomite          2.26    -14.83  -17.08  CaMg(CO3)2
  Epsomite         -2.83     -4.56   -1.74  MgSO4:7H2O
  Fluorite         -1.26    -11.88  -10.61  CaF2
  Gypsum           -0.72     -5.27   -4.55  CaSO4:2H2O
  H2(g)           -24.25    -27.35   -3.10  H2
  H2O(g)           -1.51     -0.01    1.50  H2O
  Halite           -2.48     -0.91    1.57  NaCl
  Hexahydrite      -2.99     -4.56   -1.57  MgSO4:6H2O
  Kieserite        -3.35     -4.51   -1.16  MgSO4:H2O
  Mirabilite       -2.96     -3.66   -0.71  Na2SO4:10H2O
  O2(g)           -34.79    -37.68   -2.89  O2
  Strontianite     -0.59     -9.86   -9.27  SrCO3
  Sylvite          -3.54     -2.64    0.90  KCl
  Thenardite       -4.23     -3.58    0.65  Na2SO4

**For a gas, SI = log10(fugacity). Fugacity = pressure * phi / 1 atm.
  For ideal gases, phi = 1.

------------------
End of simulation.
------------------

------------------------------------
Reading input data for simulation 2.
------------------------------------

	SOLUTION 2  Lake Baikal (Millero, 2000)
	        units   mmol/l
	        pH      7.00
	        temp    25.0
	        Na              0.155
	        Mg              0.126
	        Ca              0.402
	        K               0.0241
	        Cl              0.0124
	        S(6)            0.0574
	        Alkalinity      1.093
	END
-------------------------------------------
Beginning of initial solution calculations.
-------------------------------------------

Initial solution 2.	Lake Baikal (Millero, 2000)

-----------------------------Solution composition------------------------------

	Elements           Molality       Moles

	Alkalinity        1.093e-03   1.093e-03
	Ca                4.020e-04   4.020e-04
	Cl                1.240e-05   1.240e-05
	K                 2.410e-05   2.410e-05
	Mg                1.260e-04   1.260e-04
	Na                1.550e-04   1.550e-04
	S(6)              5.740e-05   5.740e-05

----------------------------Description of solution----------------------------

                                       pH  =   7.000    
                                       pe  =   4.000    
      Specific Conductance (µS/cm,  25°C)  = 124
                          Density (g/cm³)  =   0.99712
                               Volume (L)  =   1.00299
                        Viscosity (mPa s)  =   0.89091
                        Activity of water  =   1.000
                 Ionic strength (mol/kgw)  =   1.797e-03
                       Mass of water (kg)  =   1.000e+00
                    Total carbon (mol/kg)  =   1.326e-03
                       Total CO2 (mol/kg)  =   1.326e-03
                         Temperature (°C)  =  25.00
                  Electrical balance (eq)  =   1.490e-05
 Percent error, 100*(Cat-|An|)/(Cat+|An|)  =   0.61
                               Iterations  =   6
                                  Total H  = 1.110135e+02
                                  Total O  = 5.551019e+01

----------------------------Distribution of species----------------------------

                                               Log       Log       Log    mole V
   Species          Molality    Activity  Molality  Activity     Gamma   cm³/mol

   OH-             1.061e-07   1.012e-07    -6.974    -6.995    -0.021     -4.10
   H+              1.045e-07   1.000e-07    -6.981    -7.000    -0.019      0.00
   H2O             5.551e+01   1.000e+00     1.744    -0.000     0.000     18.07
C(4)          1.326e-03
   HCO3-           1.090e-03   1.041e-03    -2.963    -2.983    -0.020     24.58
   CO2             2.339e-04   2.340e-04    -3.631    -3.631     0.000     34.79
   MgHCO3+         1.311e-06   1.250e-06    -5.883    -5.903    -0.020      5.49
   CO3-2           5.873e-07   4.880e-07    -6.231    -6.312    -0.080     -4.62
   CaCO3           2.721e-07   2.722e-07    -6.565    -6.565     0.000    -14.60
   NaHCO3          7.597e-08   7.602e-08    -7.119    -7.119     0.000     17.66
   MgCO3           4.780e-08   4.782e-08    -7.321    -7.320     0.000    -17.09
   KHCO3           1.067e-08   1.067e-08    -7.972    -7.972     0.000     21.42
   (CO2)2          8.897e-10   8.900e-10    -9.051    -9.051     0.000     68.75
   CaHCO3+         3.172e-11   3.029e-11   -10.499   -10.519    -0.020      9.68
Ca            4.020e-04
   Ca+2            3.997e-04   3.320e-04    -3.398    -3.479    -0.081    -18.10
   CaSO4           2.077e-06   2.077e-06    -5.683    -5.682     0.000      7.22
   CaCO3           2.721e-07   2.722e-07    -6.565    -6.565     0.000    -14.60
   CaOH+           5.776e-10   5.510e-10    -9.238    -9.259    -0.020     (0)  
   CaHCO3+         3.172e-11   3.029e-11   -10.499   -10.519    -0.020      9.68
   CaHSO4+         1.825e-12   1.741e-12   -11.739   -11.759    -0.020     (0)  
Cl            1.240e-05
   Cl-             1.240e-05   1.183e-05    -4.907    -4.927    -0.021     18.08
   HCl             4.067e-13   4.075e-13   -12.391   -12.390     0.001     20.36
H(0)          1.415e-25
   H2              7.076e-26   7.079e-26   -25.150   -25.150     0.000     14.99
K             2.410e-05
   K+              2.407e-05   2.296e-05    -4.618    -4.639    -0.021      9.02
   KSO4-           1.640e-08   1.567e-08    -7.785    -7.805    -0.020     18.76
   KHCO3           1.067e-08   1.067e-08    -7.972    -7.972     0.000     21.42
Mg            1.260e-04
   Mg+2            1.234e-04   1.027e-04    -3.909    -3.989    -0.080    -21.79
   MgHCO3+         1.311e-06   1.250e-06    -5.883    -5.903    -0.020      5.49
   MgSO4           1.205e-06   1.206e-06    -5.919    -5.919     0.000     -0.40
   MgCO3           4.780e-08   4.782e-08    -7.321    -7.320     0.000    -17.09
   MgOH+           3.902e-09   3.728e-09    -8.409    -8.429    -0.020     (0)  
   Mg(SO4)2-2      2.136e-10   1.782e-10    -9.670    -9.749    -0.079     34.82
Na            1.550e-04
   Na+             1.549e-04   1.478e-04    -3.810    -3.830    -0.020     -1.46
   NaHCO3          7.597e-08   7.602e-08    -7.119    -7.119     0.000     17.66
   NaSO4-          6.105e-08   5.824e-08    -7.214    -7.235    -0.020     16.65
   Na2SO4          4.196e-15   4.197e-15   -14.377   -14.377     0.000     47.96
O(0)          0.000e+00
   O2              0.000e+00   0.000e+00   -42.063   -42.063     0.000     30.40
S(6)          5.740e-05
   SO4-2           5.404e-05   4.486e-05    -4.267    -4.348    -0.081     14.56
   CaSO4           2.077e-06   2.077e-06    -5.683    -5.682     0.000      7.22
   MgSO4           1.205e-06   1.206e-06    -5.919    -5.919     0.000     -0.40
   NaSO4-          6.105e-08   5.824e-08    -7.214    -7.235    -0.020     16.65
   KSO4-           1.640e-08   1.567e-08    -7.785    -7.805    -0.020     18.76
   HSO4-           4.572e-10   4.361e-10    -9.340    -9.360    -0.020     40.29
   Mg(SO4)2-2      2.136e-10   1.782e-10    -9.670    -9.749    -0.079     34.82
   CaHSO4+         1.825e-12   1.741e-12   -11.739   -11.759    -0.020     (0)  
   Na2SO4          4.196e-15   4.197e-15   -14.377   -14.377     0.000     47.96

------------------------------Saturation indices-------------------------------

  Phase               SI** log IAP   log K(298 K,   1 atm)

  Anhydrite        -3.51     -7.83   -4.31  CaSO4
  Aragonite        -1.45     -9.79   -8.34  CaCO3
  Arcanite        -11.75    -13.63   -1.88  K2SO4
  Calcite          -1.34     -9.79   -8.45  CaCO3
  CO2(g)           -2.16     -3.63   -1.47  CO2
  Dolomite         -3.01    -20.09  -17.08  CaMg(CO3)2
  Epsomite         -6.60     -8.34   -1.74  MgSO4:7H2O
  Gypsum           -3.28     -7.83   -4.55  CaSO4:2H2O
  H2(g)           -22.05    -25.15   -3.10  H2
  H2O(g)           -1.50     -0.00    1.50  H2O
  Halite          -10.33     -8.76    1.57  NaCl
  Hexahydrite      -6.77     -8.34   -1.57  MgSO4:6H2O
  Kieserite        -7.18     -8.34   -1.16  MgSO4:H2O
  Mirabilite      -11.30    -12.01   -0.71  Na2SO4:10H2O
  O2(g)           -39.17    -42.06   -2.89  O2
  Sylvite         -10.47     -9.57    0.90  KCl
  Thenardite      -12.66    -12.01    0.65  Na2SO4

**For a gas, SI = log10(fugacity). Fugacity = pressure * phi / 1 atm.
  For ideal gases, phi = 1.

------------------
End of simulation.
------------------

------------------------------------
Reading input data for simulation 3.
------------------------------------

	SOLUTION 3  Lake Malawi (Millero, 2000)
	        units   mmol/l
	        pH      7.00
	        temp    25.0
	        Na              0.875
	        Mg              0.3075
	        Ca              0.4525
	        K               0.16
	        Cl              0.14
	        S(6)            0.0775
	        Alkalinity      2.32 #(2.309 + 2 * 0.0055)
	END
-------------------------------------------
Beginning of initial solution calculations.
-------------------------------------------

Initial solution 3.	Lake Malawi (Millero, 2000)

-----------------------------Solution composition------------------------------

	Elements           Molality       Moles

	Alkalinity        2.320e-03   2.320e-03
	Ca                4.526e-04   4.526e-04
	Cl                1.400e-04   1.400e-04
	K                 1.600e-04   1.600e-04
	Mg                3.076e-04   3.076e-04
	Na                8.752e-04   8.752e-04
	S(6)              7.751e-05   7.751e-05

----------------------------Description of solution----------------------------

                                       pH  =   7.000    
                                       pe  =   4.000    
      Specific Conductance (µS/cm,  25°C)  = 253
                          Density (g/cm³)  =   0.99721
                               Volume (L)  =   1.00303
                        Viscosity (mPa s)  =   0.89128
                        Activity of water  =   1.000
                 Ionic strength (mol/kgw)  =   3.383e-03
                       Mass of water (kg)  =   1.000e+00
                    Total carbon (mol/kg)  =   2.806e-03
                       Total CO2 (mol/kg)  =   2.806e-03
                         Temperature (°C)  =  25.00
                  Electrical balance (eq)  =  -6.001e-05
 Percent error, 100*(Cat-|An|)/(Cat+|An|)  =  -1.17
                               Iterations  =   7
                                  Total H  = 1.110147e+02
                                  Total O  = 5.551446e+01

----------------------------Distribution of species----------------------------

                                               Log       Log       Log    mole V
   Species          Molality    Activity  Molality  Activity     Gamma   cm³/mol

   OH-             1.079e-07   1.012e-07    -6.967    -6.995    -0.028     -4.08
   H+              1.060e-07   1.000e-07    -6.975    -7.000    -0.025      0.00
   H2O             5.551e+01   9.999e-01     1.744    -0.000     0.000     18.07
C(4)          2.806e-03
   HCO3-           2.309e-03   2.170e-03    -2.637    -2.663    -0.027     24.61
   CO2             4.878e-04   4.880e-04    -3.312    -3.312     0.000     34.79
   MgHCO3+         6.300e-06   5.912e-06    -5.201    -5.228    -0.028      5.50
   CO3-2           1.304e-06   1.018e-06    -5.885    -5.992    -0.108     -4.55
   NaHCO3          8.794e-07   8.804e-07    -6.056    -6.055     0.001     17.66
   CaCO3           5.989e-07   5.994e-07    -6.223    -6.222     0.000    -14.60
   MgCO3           2.260e-07   2.261e-07    -6.646    -6.646     0.000    -17.09
   KHCO3           1.452e-07   1.453e-07    -6.838    -6.838     0.000     21.42
   (CO2)2          3.870e-09   3.872e-09    -8.412    -8.412     0.000     68.75
   CaHCO3+         7.092e-11   6.671e-11   -10.149   -10.176    -0.027      9.69
Ca            4.526e-04
   Ca+2            4.493e-04   3.506e-04    -3.347    -3.455    -0.108    -18.05
   CaSO4           2.700e-06   2.701e-06    -5.569    -5.569     0.000      7.22
   CaCO3           5.989e-07   5.994e-07    -6.223    -6.222     0.000    -14.60
   CaOH+           6.198e-10   5.817e-10    -9.208    -9.235    -0.028     (0)  
   CaHCO3+         7.092e-11   6.671e-11   -10.149   -10.176    -0.027      9.69
   CaHSO4+         2.411e-12   2.263e-12   -11.618   -11.645    -0.028     (0)  
Cl            1.400e-04
   Cl-             1.400e-04   1.314e-04    -3.854    -3.881    -0.028     18.10
   HCl             4.511e-12   4.526e-12   -11.346   -11.344     0.001     20.36
H(0)          1.415e-25
   H2              7.074e-26   7.079e-26   -25.150   -25.150     0.000     14.99
K             1.600e-04
   K+              1.597e-04   1.499e-04    -3.797    -3.824    -0.028      9.03
   KHCO3           1.452e-07   1.453e-07    -6.838    -6.838     0.000     21.42
   KSO4-           1.338e-07   1.259e-07    -6.874    -6.900    -0.026     19.33
Mg            3.076e-04
   Mg+2            2.977e-04   2.328e-04    -3.526    -3.633    -0.107    -21.74
   MgHCO3+         6.300e-06   5.912e-06    -5.201    -5.228    -0.028      5.50
   MgSO4           3.361e-06   3.367e-06    -5.473    -5.473     0.001     -0.40
   MgCO3           2.260e-07   2.261e-07    -6.646    -6.646     0.000    -17.09
   MgOH+           8.982e-09   8.452e-09    -8.047    -8.073    -0.026     (0)  
   Mg(SO4)2-2      7.790e-10   6.124e-10    -9.108    -9.213    -0.105     35.89
Na            8.752e-04
   Na+             8.739e-04   8.207e-04    -3.059    -3.086    -0.027     -1.44
   NaHCO3          8.794e-07   8.804e-07    -6.056    -6.055     0.001     17.66
   NaSO4-          4.242e-07   3.982e-07    -6.372    -6.400    -0.027     16.74
   Na2SO4          1.592e-13   1.593e-13   -12.798   -12.798     0.000     47.96
O(0)          0.000e+00
   O2              0.000e+00   0.000e+00   -42.063   -42.063     0.000     30.40
S(6)          7.751e-05
   SO4-2           7.089e-05   5.523e-05    -4.149    -4.258    -0.108     14.60
   MgSO4           3.361e-06   3.367e-06    -5.473    -5.473     0.001     -0.40
   CaSO4           2.700e-06   2.701e-06    -5.569    -5.569     0.000      7.22
   NaSO4-          4.242e-07   3.982e-07    -6.372    -6.400    -0.027     16.74
   KSO4-           1.338e-07   1.259e-07    -6.874    -6.900    -0.026     19.33
   Mg(SO4)2-2      7.790e-10   6.124e-10    -9.108    -9.213    -0.105     35.89
   HSO4-           5.721e-10   5.369e-10    -9.243    -9.270    -0.028     40.30
   CaHSO4+         2.411e-12   2.263e-12   -11.618   -11.645    -0.028     (0)  
   Na2SO4          1.592e-13   1.593e-13   -12.798   -12.798     0.000     47.96

------------------------------Saturation indices-------------------------------

  Phase               SI** log IAP   log K(298 K,   1 atm)

  Anhydrite        -3.40     -7.71   -4.31  CaSO4
  Aragonite        -1.11     -9.45   -8.34  CaCO3
  Arcanite        -10.03    -11.91   -1.88  K2SO4
  Calcite          -1.00     -9.45   -8.45  CaCO3
  CO2(g)           -1.84     -3.31   -1.47  CO2
  Dolomite         -1.99    -19.07  -17.08  CaMg(CO3)2
  Epsomite         -6.15     -7.89   -1.74  MgSO4:7H2O
  Gypsum           -3.16     -7.71   -4.55  CaSO4:2H2O
  H2(g)           -22.05    -25.15   -3.10  H2
  H2O(g)           -1.50     -0.00    1.50  H2O
  Halite           -8.54     -6.97    1.57  NaCl
  Hexahydrite      -6.32     -7.89   -1.57  MgSO4:6H2O
  Kieserite        -6.73     -7.89   -1.16  MgSO4:H2O
  Mirabilite       -9.72    -10.43   -0.71  Na2SO4:10H2O
  O2(g)           -39.17    -42.06   -2.89  O2
  Sylvite          -8.61     -7.71    0.90  KCl
  Thenardite      -11.08    -10.43    0.65  Na2SO4

**For a gas, SI = log10(fugacity). Fugacity = pressure * phi / 1 atm.
  For ideal gases, phi = 1.

------------------
End of simulation.
------------------

------------------------------------
Reading input data for simulation 4.
------------------------------------

	SOLUTION 4  Lake Tanganyika (Millero, 2000)
	        units   mmol/l
	        pH      7.00
	        temp    25.0
	        Na              2.72
	        Mg              1.65
	        Ca              0.27
	        K               0.82
	        Cl              0.62
	        S(6)            0.06
	        Alkalinity      6.52
	END
-------------------------------------------
Beginning of initial solution calculations.
-------------------------------------------

Initial solution 4.	Lake Tanganyika (Millero, 2000)

-----------------------------Solution composition------------------------------

	Elements           Molality       Moles

	Alkalinity        6.523e-03   6.523e-03
	Ca                2.701e-04   2.701e-04
	Cl                6.203e-04   6.203e-04
	K                 8.204e-04   8.204e-04
	Mg                1.651e-03   1.651e-03
	Na                2.721e-03   2.721e-03
	S(6)              6.003e-05   6.003e-05

----------------------------Description of solution----------------------------

                                       pH  =   7.000    
                                       pe  =   4.000    
      Specific Conductance (µS/cm,  25°C)  = 668
                          Density (g/cm³)  =   0.99749
                               Volume (L)  =   1.00315
                        Viscosity (mPa s)  =   0.89282
                        Activity of water  =   1.000
                 Ionic strength (mol/kgw)  =   9.085e-03
                       Mass of water (kg)  =   1.000e+00
                    Total carbon (mol/kg)  =   7.826e-03
                       Total CO2 (mol/kg)  =   7.826e-03
                         Temperature (°C)  =  25.00
                  Electrical balance (eq)  =   1.201e-04
 Percent error, 100*(Cat-|An|)/(Cat+|An|)  =   0.83
                               Iterations  =   9
                                  Total H  = 1.110189e+02
                                  Total O  = 5.552862e+01

----------------------------Distribution of species----------------------------

                                               Log       Log       Log    mole V
   Species          Molality    Activity  Molality  Activity     Gamma   cm³/mol

   OH-             1.119e-07   1.012e-07    -6.951    -6.995    -0.044     -4.04
   H+              1.091e-07   1.000e-07    -6.962    -7.000    -0.038      0.00
   H2O             5.551e+01   9.998e-01     1.744    -0.000     0.000     18.07
C(4)          7.826e-03
   HCO3-           6.418e-03   5.833e-03    -2.193    -2.234    -0.042     24.69
   CO2             1.310e-03   1.312e-03    -2.883    -2.882     0.001     34.79
   MgHCO3+         8.052e-05   7.290e-05    -4.094    -4.137    -0.043      5.53
   NaHCO3          7.074e-06   7.096e-06    -5.150    -5.149     0.001     17.66
   CO3-2           4.012e-06   2.736e-06    -5.397    -5.563    -0.166     -4.37
   MgCO3           2.782e-06   2.788e-06    -5.556    -5.555     0.001    -17.09
   KHCO3           1.924e-06   1.928e-06    -5.716    -5.715     0.001     21.42
   CaCO3           8.388e-07   8.406e-07    -6.076    -6.075     0.001    -14.60
   (CO2)2          2.794e-08   2.798e-08    -7.554    -7.553     0.001     68.75
   CaHCO3+         1.028e-10   9.355e-11    -9.988   -10.029    -0.041      9.72
Ca            2.701e-04
   Ca+2            2.685e-04   1.829e-04    -3.571    -3.738    -0.167    -17.94
   CaSO4           8.434e-07   8.442e-07    -6.074    -6.074     0.000      7.22
   CaCO3           8.388e-07   8.406e-07    -6.076    -6.075     0.001    -14.60
   CaOH+           3.351e-10   3.035e-10    -9.475    -9.518    -0.043     (0)  
   CaHCO3+         1.028e-10   9.355e-11    -9.988   -10.029    -0.041      9.72
   CaHSO4+         7.810e-13   7.074e-13   -12.107   -12.150    -0.043     (0)  
Cl            6.203e-04
   Cl-             6.203e-04   5.612e-04    -3.207    -3.251    -0.043     18.13
   HCl             1.916e-11   1.933e-11   -10.718   -10.714     0.004     20.36
H(0)          1.413e-25
   H2              7.064e-26   7.079e-26   -25.151   -25.150     0.001     14.99
K             8.204e-04
   K+              8.181e-04   7.398e-04    -3.087    -3.131    -0.044      9.06
   KHCO3           1.924e-06   1.928e-06    -5.716    -5.715     0.001     21.42
   KSO4-           4.083e-07   3.725e-07    -6.389    -6.429    -0.040     20.53
Mg            1.651e-03
   Mg+2            1.558e-03   1.068e-03    -2.807    -2.971    -0.164    -21.63
   MgHCO3+         8.052e-05   7.290e-05    -4.094    -4.137    -0.043      5.53
   MgSO4           9.214e-06   9.253e-06    -5.036    -5.034     0.002     -0.40
   MgCO3           2.782e-06   2.788e-06    -5.556    -5.555     0.001    -17.09
   MgOH+           4.255e-08   3.877e-08    -7.371    -7.412    -0.040     (0)  
   Mg(SO4)2-2      1.454e-09   1.008e-09    -8.837    -8.996    -0.159     37.73
Na            2.721e-03
   Na+             2.713e-03   2.461e-03    -2.566    -2.609    -0.042     -1.39
   NaHCO3          7.074e-06   7.096e-06    -5.150    -5.149     0.001     17.66
   NaSO4-          7.896e-07   7.154e-07    -6.103    -6.145    -0.043     16.96
   Na2SO4          8.570e-13   8.586e-13   -12.067   -12.066     0.001     47.96
O(0)          0.000e+00
   O2              0.000e+00   0.000e+00   -42.064   -42.063     0.001     30.40
S(6)          6.003e-05
   SO4-2           4.877e-05   3.309e-05    -4.312    -4.480    -0.168     14.68
   MgSO4           9.214e-06   9.253e-06    -5.036    -5.034     0.002     -0.40
   CaSO4           8.434e-07   8.442e-07    -6.074    -6.074     0.000      7.22
   NaSO4-          7.896e-07   7.154e-07    -6.103    -6.145    -0.043     16.96
   KSO4-           4.083e-07   3.725e-07    -6.389    -6.429    -0.040     20.53
   Mg(SO4)2-2      1.454e-09   1.008e-09    -8.837    -8.996    -0.159     37.73
   HSO4-           3.552e-10   3.217e-10    -9.450    -9.493    -0.043     40.34
   Na2SO4          8.570e-13   8.586e-13   -12.067   -12.066     0.001     47.96
   CaHSO4+         7.810e-13   7.074e-13   -12.107   -12.150    -0.043     (0)  

------------------------------Saturation indices-------------------------------

  Phase               SI** log IAP   log K(298 K,   1 atm)

  Anhydrite        -3.90     -8.22   -4.31  CaSO4
  Aragonite        -0.96     -9.30   -8.34  CaCO3
  Arcanite         -8.86    -10.74   -1.88  K2SO4
  Calcite          -0.85     -9.30   -8.45  CaCO3
  CO2(g)           -1.41     -2.88   -1.47  CO2
  Dolomite         -0.75    -17.84  -17.08  CaMg(CO3)2
  Epsomite         -5.71     -7.45   -1.74  MgSO4:7H2O
  Gypsum           -3.67     -8.22   -4.55  CaSO4:2H2O
  H2(g)           -22.05    -25.15   -3.10  H2
  H2O(g)           -1.50     -0.00    1.50  H2O
  Halite           -7.43     -5.86    1.57  NaCl
  Hexahydrite      -5.89     -7.45   -1.57  MgSO4:6H2O
  Kieserite        -6.29     -7.45   -1.16  MgSO4:H2O
  Mirabilite       -8.99     -9.70   -0.71  Na2SO4:10H2O
  O2(g)           -39.17    -42.06   -2.89  O2
  Sylvite          -7.28     -6.38    0.90  KCl
  Thenardite      -10.35     -9.70    0.65  Na2SO4

**For a gas, SI = log10(fugacity). Fugacity = pressure * phi / 1 atm.
  For ideal gases, phi = 1.

------------------
End of simulation.
------------------

------------------------------------
Reading input data for simulation 5.
------------------------------------

	SOLUTION 5  Artificial river water (Millero et al., 1976)
	        units   ppm
	        pH      7.6
	        temp    25.0
	        Na              6.3
	        Mg              4.1
	        Ca              15.0
	        K               2.3
	        Cl              7.8
	        S(6)            11.2 as SO4
	        Alkalinity      58.0 as HCO3
	        N(5)            1.0 as NO3
	END
-------------------------------------------
Beginning of initial solution calculations.
-------------------------------------------

Initial solution 5.	Artificial river water (Millero et al., 1976)

-----------------------------Solution composition------------------------------

	Elements           Molality       Moles

	Alkalinity        9.506e-04   9.506e-04
	Ca                3.743e-04   3.743e-04
	Cl                2.200e-04   2.200e-04
	K                 5.883e-05   5.883e-05
	Mg                1.687e-04   1.687e-04
	N(5)              1.613e-05   1.613e-05
	Na                2.741e-04   2.741e-04
	S(6)              1.166e-04   1.166e-04

----------------------------Description of solution----------------------------

                                       pH  =   7.600    
                                       pe  =   4.000    
      Specific Conductance (µS/cm,  25°C)  = 153
                          Density (g/cm³)  =   0.99713
                               Volume (L)  =   1.00299
                        Viscosity (mPa s)  =   0.89087
                        Activity of water  =   1.000
                 Ionic strength (mol/kgw)  =   2.046e-03
                       Mass of water (kg)  =   1.000e+00
                    Total carbon (mol/kg)  =   9.977e-04
                       Total CO2 (mol/kg)  =   9.977e-04
                         Temperature (°C)  =  25.00
                  Electrical balance (eq)  =  -1.197e-06
 Percent error, 100*(Cat-|An|)/(Cat+|An|)  =  -0.04
                               Iterations  =   8
                                  Total H  = 1.110134e+02
                                  Total O  = 5.550967e+01

----------------------------Distribution of species----------------------------

                                               Log       Log       Log    mole V
   Species          Molality    Activity  Molality  Activity     Gamma   cm³/mol

   OH-             4.238e-07   4.029e-07    -6.373    -6.395    -0.022     -4.09
   H+              2.632e-08   2.512e-08    -7.580    -7.600    -0.020      0.00
   H2O             5.551e+01   1.000e+00     1.744    -0.000     0.000     18.07
C(4)          9.977e-04
   HCO3-           9.424e-04   8.972e-04    -3.026    -3.047    -0.021     24.58
   CO2             5.065e-05   5.067e-05    -4.295    -4.295     0.000     34.79
   CO3-2           2.039e-06   1.675e-06    -5.691    -5.776    -0.085     -4.61
   MgHCO3+         1.487e-06   1.414e-06    -5.828    -5.850    -0.022      5.49
   CaCO3           8.537e-07   8.541e-07    -6.069    -6.068     0.000    -14.60
   MgCO3           2.152e-07   2.153e-07    -6.667    -6.667     0.000    -17.09
   NaHCO3          1.154e-07   1.155e-07    -6.938    -6.937     0.000     17.66
   KHCO3           2.237e-08   2.238e-08    -7.650    -7.650     0.000     21.42
   (CO2)2          4.173e-11   4.174e-11   -10.380   -10.379     0.000     68.75
   CaHCO3+         2.507e-11   2.388e-11   -10.601   -10.622    -0.021      9.68
Ca            3.743e-04
   Ca+2            3.696e-04   3.035e-04    -3.432    -3.518    -0.086    -18.10
   CaSO4           3.797e-06   3.798e-06    -5.421    -5.420     0.000      7.22
   CaCO3           8.537e-07   8.541e-07    -6.069    -6.068     0.000    -14.60
   CaOH+           2.108e-09   2.005e-09    -8.676    -8.698    -0.022     (0)  
   CaHCO3+         2.507e-11   2.388e-11   -10.601   -10.622    -0.021      9.68
   CaHSO4+         8.405e-13   7.995e-13   -12.075   -12.097    -0.022     (0)  
Cl            2.200e-04
   Cl-             2.200e-04   2.092e-04    -3.658    -3.679    -0.022     18.09
   HCl             1.807e-12   1.811e-12   -11.743   -11.742     0.001     20.36
H(0)          8.929e-27
   H2              4.465e-27   4.467e-27   -26.350   -26.350     0.000     14.99
K             5.883e-05
   K+              5.872e-05   5.584e-05    -4.231    -4.253    -0.022      9.02
   KSO4-           7.998e-08   7.621e-08    -7.097    -7.118    -0.021     18.87
   KHCO3           2.237e-08   2.238e-08    -7.650    -7.650     0.000     21.42
Mg            1.687e-04
   Mg+2            1.638e-04   1.347e-04    -3.786    -3.871    -0.085    -21.78
   MgSO4           3.161e-06   3.164e-06    -5.500    -5.500     0.000     -0.40
   MgHCO3+         1.487e-06   1.414e-06    -5.828    -5.850    -0.022      5.49
   MgCO3           2.152e-07   2.153e-07    -6.667    -6.667     0.000    -17.09
   MgOH+           2.043e-08   1.947e-08    -7.690    -7.711    -0.021     (0)  
   Mg(SO4)2-2      1.133e-09   9.347e-10    -8.946    -9.029    -0.083     35.03
N(5)          1.613e-05
   NO3-            1.613e-05   1.533e-05    -4.792    -4.814    -0.022     29.50
Na            2.741e-04
   Na+             2.737e-04   2.605e-04    -3.563    -3.584    -0.022     -1.46
   NaSO4-          2.158e-07   2.052e-07    -6.666    -6.688    -0.022     16.67
   NaHCO3          1.154e-07   1.155e-07    -6.938    -6.937     0.000     17.66
   Na2SO4          2.606e-14   2.607e-14   -13.584   -13.584     0.000     47.96
O(0)          4.347e-40
   O2              2.174e-40   2.175e-40   -39.663   -39.663     0.000     30.40
S(6)          1.166e-04
   SO4-2           1.093e-04   8.970e-05    -3.961    -4.047    -0.086     14.57
   CaSO4           3.797e-06   3.798e-06    -5.421    -5.420     0.000      7.22
   MgSO4           3.161e-06   3.164e-06    -5.500    -5.500     0.000     -0.40
   NaSO4-          2.158e-07   2.052e-07    -6.666    -6.688    -0.022     16.67
   KSO4-           7.998e-08   7.621e-08    -7.097    -7.118    -0.021     18.87
   Mg(SO4)2-2      1.133e-09   9.347e-10    -8.946    -9.029    -0.083     35.03
   HSO4-           2.303e-10   2.191e-10    -9.638    -9.659    -0.022     40.29
   CaHSO4+         8.405e-13   7.995e-13   -12.075   -12.097    -0.022     (0)  
   Na2SO4          2.606e-14   2.607e-14   -13.584   -13.584     0.000     47.96

------------------------------Saturation indices-------------------------------

  Phase               SI** log IAP   log K(298 K,   1 atm)

  Anhydrite        -3.25     -7.56   -4.31  CaSO4
  Aragonite        -0.96     -9.29   -8.34  CaCO3
  Arcanite        -10.67    -12.55   -1.88  K2SO4
  Calcite          -0.85     -9.29   -8.45  CaCO3
  CO2(g)           -2.83     -4.30   -1.47  CO2
  Dolomite         -1.86    -18.94  -17.08  CaMg(CO3)2
  Epsomite         -6.18     -7.92   -1.74  MgSO4:7H2O
  Gypsum           -3.02     -7.57   -4.55  CaSO4:2H2O
  H2(g)           -23.25    -26.35   -3.10  H2
  H2O(g)           -1.50     -0.00    1.50  H2O
  Halite           -8.83     -7.26    1.57  NaCl
  Hexahydrite      -6.35     -7.92   -1.57  MgSO4:6H2O
  Kieserite        -6.76     -7.92   -1.16  MgSO4:H2O
  Mirabilite      -10.51    -11.22   -0.71  Na2SO4:10H2O
  O2(g)           -36.77    -39.66   -2.89  O2
  Sylvite          -8.83     -7.93    0.90  KCl
  Thenardite      -11.87    -11.22    0.65  Na2SO4

**For a gas, SI = log10(fugacity). Fugacity = pressure * phi / 1 atm.
  For ideal gases, phi = 1.

------------------
End of simulation.
------------------

------------------------------------
Reading input data for simulation 6.
------------------------------------

