WARNING: Database file from DATABASE keyword is used; command line argument ignored.
   Input file: mu
  Output file: mu.out
Database file: ../database/phreeqc.dat

------------------
Reading data base.
------------------

	SOLUTION_MASTER_SPECIES
	SOLUTION_SPECIES
	PHASES
	GAS_BINARY_PARAMETERS
	EXCHANGE_MASTER_SPECIES
	EXCHANGE_SPECIES
	SURFACE_MASTER_SPECIES
	SURFACE_SPECIES
	MEAN_GAMMAS
	RATES
	END
------------------------------------
Reading input data for simulation 1.
------------------------------------

	DATABASE ../database/phreeqc.dat
	SELECTED_OUTPUT 101
	    file                 mu_101.sel
	USER_PUNCH 101
	    headings Mu SC
	    start
	10 PUNCH STR_F$(MU, 20, 12)
	20 PUNCH STR_F$(SC, 20, 10)
	    end
	 SOLUTION 2
	  pH  7.0
	  Ca  36.0  Fluorite
	  F   0.5 mg/kgw     # Why does this one (+0.2, -0.1) fail?
	  Cl 10   charge
	END
-------------------------------------------
Beginning of initial solution calculations.
-------------------------------------------

Initial solution 2.	

-----------------------------Solution composition------------------------------

	Elements           Molality       Moles

	Ca                4.417e-01   4.417e-01  Equilibrium with Fluorite
	Cl                8.833e-01   8.833e-01  Charge balance
	F                 2.632e-05   2.632e-05

----------------------------Description of solution----------------------------

                                       pH  =   7.000    
                                       pe  =   4.000    
      Specific Conductance (µS/cm,  25°C)  = 70407
                          Density (g/cm³)  =   1.03594
                               Volume (L)  =   1.01262
                        Viscosity (mPa s)  =   1.02346
                        Activity of water  =   0.977
                 Ionic strength (mol/kgw)  =   1.325e+00
                       Mass of water (kg)  =   1.000e+00
                 Total alkalinity (eq/kg)  =   2.491e-07
                         Temperature (°C)  =  25.00
                  Electrical balance (eq)  =   5.284e-13
 Percent error, 100*(Cat-|An|)/(Cat+|An|)  =   0.00
                               Iterations  =  11
                                  Total H  = 1.110124e+02
                                  Total O  = 5.550622e+01

----------------------------Distribution of species----------------------------

                                               Log       Log       Log    mole V
   Species          Molality    Activity  Molality  Activity     Gamma   cm³/mol

   OH-             1.770e-07   9.894e-08    -6.752    -7.005    -0.253     -1.61
   H+              1.359e-07   1.000e-07    -6.867    -7.000    -0.133      0.00
   H2O             5.551e+01   9.775e-01     1.744    -0.010     0.000     18.07
Ca            4.417e-01
   Ca+2            4.417e-01   1.125e-01    -0.355    -0.949    -0.594    -16.28
   CaOH+           2.146e-07   1.826e-07    -6.668    -6.739    -0.070     (0)  
Cl            8.833e-01
   Cl-             8.833e-01   5.262e-01    -0.054    -0.279    -0.225     19.07
   HCl             4.948e-09   1.813e-08    -8.306    -7.742     0.564     20.36
F             2.632e-05
   F-              2.632e-05   1.471e-05    -4.580    -4.832    -0.253      1.68
   HF              1.626e-09   2.206e-09    -8.789    -8.656     0.132     12.50
   HF2-            1.463e-13   1.245e-13   -12.835   -12.905    -0.070     23.12
H(0)          1.028e-25
   H2              5.139e-26   7.079e-26   -25.289   -25.150     0.139     14.99
O(0)          0.000e+00
   O2              0.000e+00   0.000e+00   -42.215   -42.082     0.132     30.40

------------------------------Saturation indices-------------------------------

  Phase               SI** log IAP   log K(298 K,   1 atm)

  Fluorite          0.00    -10.61  -10.61  CaF2
  H2(g)           -22.05    -25.15   -3.10  H2
  H2O(g)           -1.51     -0.01    1.50  H2O
  O2(g)           -39.19    -42.08   -2.89  O2

**For a gas, SI = log10(fugacity). Fugacity = pressure * phi / 1 atm.
  For ideal gases, phi = 1.

------------------
End of simulation.
------------------

------------------------------------
Reading input data for simulation 2.
------------------------------------

	 SOLUTION 2
	  pH  7.0
	  Ca  36.0  Fluorite
	  F   0.3 mg/kgw   # OK
	  Cl 10   charge
	END
-------------------------------------------
Beginning of initial solution calculations.
-------------------------------------------

Initial solution 2.	

-----------------------------Solution composition------------------------------

	Elements           Molality       Moles

	Ca                1.006e+00   1.006e+00  Equilibrium with Fluorite
	Cl                2.012e+00   2.012e+00  Charge balance
	F                 1.579e-05   1.579e-05

----------------------------Description of solution----------------------------

                                       pH  =   7.000    
                                       pe  =   4.000    
      Specific Conductance (µS/cm,  25°C)  = 132502
                          Density (g/cm³)  =   1.08271
                               Volume (L)  =   1.02674
                        Viscosity (mPa s)  =   1.19572
                        Activity of water  =   0.949
                 Ionic strength (mol/kgw)  =   3.018e+00
                       Mass of water (kg)  =   1.000e+00
                 Total alkalinity (eq/kg)  =   4.839e-07
                         Temperature (°C)  =  25.00
                  Electrical balance (eq)  =   2.981e-09
 Percent error, 100*(Cat-|An|)/(Cat+|An|)  =   0.00
                               Iterations  =  10
                                  Total H  = 1.110124e+02
                                  Total O  = 5.550622e+01

----------------------------Distribution of species----------------------------

                                               Log       Log       Log    mole V
   Species          Molality    Activity  Molality  Activity     Gamma   cm³/mol

   OH-             1.897e-07   9.602e-08    -6.722    -7.018    -0.296      0.79
   H+              1.394e-07   1.000e-07    -6.856    -7.000    -0.144      0.00
   H2O             5.551e+01   9.487e-01     1.744    -0.023     0.000     18.07
Ca            1.006e+00
   Ca+2            1.006e+00   3.809e-01     0.003    -0.419    -0.422    -15.48
   CaOH+           4.364e-07   5.997e-07    -6.360    -6.222     0.138     (0)  
Cl            2.012e+00
   Cl-             2.012e+00   1.165e+00     0.304     0.066    -0.237     19.55
   HCl             2.085e-09   4.015e-08    -8.681    -7.396     1.285     20.36
F             1.579e-05
   F-              1.579e-05   7.994e-06    -4.802    -5.097    -0.296      5.20
   HF              5.984e-10   1.199e-09    -9.223    -8.921     0.302     12.50
   HF2-            2.676e-14   3.678e-14   -13.573   -13.434     0.138     23.67
H(0)          6.825e-26
   H2              3.413e-26   7.079e-26   -25.467   -25.150     0.317     14.99
O(0)          0.000e+00
   O2              0.000e+00   0.000e+00   -42.410   -42.108     0.302     30.40

------------------------------Saturation indices-------------------------------

  Phase               SI** log IAP   log K(298 K,   1 atm)

  Fluorite         -0.00    -10.61  -10.61  CaF2
  H2(g)           -22.05    -25.15   -3.10  H2
  H2O(g)           -1.53     -0.02    1.50  H2O
  O2(g)           -39.22    -42.11   -2.89  O2

**For a gas, SI = log10(fugacity). Fugacity = pressure * phi / 1 atm.
  For ideal gases, phi = 1.

------------------
End of simulation.
------------------

------------------------------------
Reading input data for simulation 3.
------------------------------------

	 SOLUTION 2
	  pH  7.0
	  Ca  36.0  Fluorite
	  F   0.8  mg/kgw   # OK
	  Cl 10   charge
	END
-------------------------------------------
Beginning of initial solution calculations.
-------------------------------------------

Initial solution 2.	

-----------------------------Solution composition------------------------------

	Elements           Molality       Moles

	Ca                1.089e-01   1.089e-01  Equilibrium with Fluorite
	Cl                2.178e-01   2.178e-01  Charge balance
	F                 4.211e-05   4.211e-05

----------------------------Description of solution----------------------------

                                       pH  =   7.000    
                                       pe  =   4.000    
      Specific Conductance (µS/cm,  25°C)  = 20895
                          Density (g/cm³)  =   1.00690
                               Volume (L)  =   1.00516
                        Viscosity (mPa s)  =   0.92601
                        Activity of water  =   0.994
                 Ionic strength (mol/kgw)  =   3.268e-01
                       Mass of water (kg)  =   1.000e+00
                 Total alkalinity (eq/kg)  =   8.458e-08
                         Temperature (°C)  =  25.00
                  Electrical balance (eq)  =   9.304e-12
 Percent error, 100*(Cat-|An|)/(Cat+|An|)  =   0.00
                               Iterations  =  13
                                  Total H  = 1.110124e+02
                                  Total O  = 5.550622e+01

----------------------------Distribution of species----------------------------

                                               Log       Log       Log    mole V
   Species          Molality    Activity  Molality  Activity     Gamma   cm³/mol

   OH-             1.509e-07   1.007e-07    -6.821    -6.997    -0.176     -3.24
   H+              1.283e-07   1.000e-07    -6.892    -7.000    -0.108      0.00
   H2O             5.551e+01   9.944e-01     1.744    -0.002     0.000     18.07
Ca            1.089e-01
   Ca+2            1.089e-01   3.087e-02    -0.963    -1.510    -0.548    -17.03
   CaOH+           6.961e-08   5.095e-08    -7.157    -7.293    -0.136     (0)  
Cl            2.178e-01
   Cl-             2.178e-01   1.480e-01    -0.662    -0.830    -0.168     18.57
   HCl             3.701e-09   5.099e-09    -8.432    -8.293     0.139     20.36
F             4.211e-05
   F-              4.210e-05   2.808e-05    -4.376    -4.552    -0.176     -0.60
   HF              3.906e-09   4.211e-09    -8.408    -8.376     0.033     12.50
   HF2-            6.199e-13   4.537e-13   -12.208   -12.343    -0.136     22.57
H(0)          1.308e-25
   H2              6.542e-26   7.079e-26   -25.184   -25.150     0.034     14.99
O(0)          0.000e+00
   O2              0.000e+00   0.000e+00   -42.100   -42.067     0.033     30.40

------------------------------Saturation indices-------------------------------

  Phase               SI** log IAP   log K(298 K,   1 atm)

  Fluorite         -0.00    -10.61  -10.61  CaF2
  H2(g)           -22.05    -25.15   -3.10  H2
  H2O(g)           -1.51     -0.00    1.50  H2O
  O2(g)           -39.18    -42.07   -2.89  O2

**For a gas, SI = log10(fugacity). Fugacity = pressure * phi / 1 atm.
  For ideal gases, phi = 1.

------------------
End of simulation.
------------------

------------------------------------
Reading input data for simulation 4.
------------------------------------

	 SOLUTION 2
	  pH  7.0
	  Ca  36.0  Fluorite
	  F   0.5 mg/kgw     # Why does this one (+0.2, -0.1) fail?
	  Cl 10  # charge
	END
-------------------------------------------
Beginning of initial solution calculations.
-------------------------------------------

Initial solution 2.	

-----------------------------Solution composition------------------------------

	Elements           Molality       Moles

	Ca                4.020e-01   4.020e-01  Equilibrium with Fluorite
	Cl                1.000e-02   1.000e-02
	F                 2.632e-05   2.632e-05

----------------------------Description of solution----------------------------

                                       pH  =   7.000    
                                       pe  =   4.000    
      Specific Conductance (µS/cm,  25°C)  = 26445
                          Density (g/cm³)  =   1.02006
                               Volume (L)  =   0.99648
                        Viscosity (mPa s)  =   1.00837
                        Activity of water  =   0.993
                 Ionic strength (mol/kgw)  =   8.090e-01
                       Mass of water (kg)  =   1.000e+00
                 Total alkalinity (eq/kg)  =   2.481e-07
                         Temperature (°C)  =  25.00
                  Electrical balance (eq)  =   7.940e-01
 Percent error, 100*(Cat-|An|)/(Cat+|An|)  =  97.54
                               Iterations  =  11
                                  Total H  = 1.110124e+02
                                  Total O  = 5.550622e+01

----------------------------Distribution of species----------------------------

                                               Log       Log       Log    mole V
   Species          Molality    Activity  Molality  Activity     Gamma   cm³/mol

   OH-             1.689e-07   1.005e-07    -6.772    -6.998    -0.226     -2.41
   H+              1.335e-07   1.000e-07    -6.875    -7.000    -0.125      0.00
   H2O             5.551e+01   9.930e-01     1.744    -0.003     0.000     18.07
Ca            4.020e-01
   Ca+2            4.020e-01   9.931e-02    -0.396    -1.003    -0.607    -16.60
   CaOH+           2.146e-07   1.637e-07    -6.668    -6.786    -0.118     (0)  
Cl            1.000e-02
   Cl-             1.000e-02   6.200e-03    -2.000    -2.208    -0.208     18.86
   HCl             9.666e-11   2.136e-10   -10.015    -9.670     0.344     20.36
F             2.632e-05
   F-              2.632e-05   1.566e-05    -4.580    -4.805    -0.226      0.54
   HF              1.949e-09   2.348e-09    -8.710    -8.629     0.081     12.50
   HF2-            1.850e-13   1.411e-13   -12.733   -12.851    -0.118     22.88
H(0)          1.164e-25
   H2              5.822e-26   7.079e-26   -25.235   -25.150     0.085     14.99
O(0)          0.000e+00
   O2              0.000e+00   0.000e+00   -42.150   -42.069     0.081     30.40

------------------------------Saturation indices-------------------------------

  Phase               SI** log IAP   log K(298 K,   1 atm)

  Fluorite          0.00    -10.61  -10.61  CaF2
  H2(g)           -22.05    -25.15   -3.10  H2
  H2O(g)           -1.51     -0.00    1.50  H2O
  O2(g)           -39.18    -42.07   -2.89  O2

**For a gas, SI = log10(fugacity). Fugacity = pressure * phi / 1 atm.
  For ideal gases, phi = 1.

------------------
End of simulation.
------------------

------------------------------------
Reading input data for simulation 5.
------------------------------------

	 SOLUTION 2
	  pH  7.0
	  Ca  36.0  Fluorite
	  F   0.3 mg/kgw   # OK
	  Cl 10   # charge
	END
-------------------------------------------
Beginning of initial solution calculations.
-------------------------------------------

Initial solution 2.	

-----------------------------Solution composition------------------------------

	Elements           Molality       Moles

	Ca                1.149e+00   1.149e+00  Equilibrium with Fluorite
	Cl                1.000e-02   1.000e-02
	F                 1.579e-05   1.579e-05

----------------------------Description of solution----------------------------

                                       pH  =   7.000    
                                       pe  =   4.000    
      Specific Conductance (µS/cm,  25°C)  = 56297
                          Density (g/cm³)  =   1.06230
                               Volume (L)  =   0.98502
                        Viscosity (mPa s)  =   1.23032
                        Activity of water  =   0.980
                 Ionic strength (mol/kgw)  =   2.302e+00
                       Mass of water (kg)  =   1.000e+00
                 Total alkalinity (eq/kg)  =   5.757e-07
                         Temperature (°C)  =  25.00
                  Electrical balance (eq)  =   2.287e+00
 Percent error, 100*(Cat-|An|)/(Cat+|An|)  =  99.13
                               Iterations  =  12
                                  Total H  = 1.110124e+02
                                  Total O  = 5.550622e+01

----------------------------Distribution of species----------------------------

                                               Log       Log       Log    mole V
   Species          Molality    Activity  Molality  Activity     Gamma   cm³/mol

   OH-             1.899e-07   9.922e-08    -6.721    -7.003    -0.282     -0.20
   H+              1.384e-07   1.000e-07    -6.859    -7.000    -0.141      0.00
   H2O             5.551e+01   9.803e-01     1.744    -0.009     0.000     18.07
Ca            1.149e+00
   Ca+2            1.149e+00   3.577e-01     0.060    -0.446    -0.507    -15.79
   CaOH+           5.249e-07   5.820e-07    -6.280    -6.235     0.045     (0)  
Cl            1.000e-02
   Cl-             1.000e-02   5.803e-03    -2.000    -2.236    -0.236     19.38
   HCl             2.095e-11   1.999e-10   -10.679    -9.699     0.980     20.36
F             1.579e-05
   F-              1.579e-05   8.249e-06    -4.802    -5.084    -0.282      3.74
   HF              7.282e-10   1.237e-09    -9.138    -8.908     0.230     12.50
   HF2-            3.532e-14   3.916e-14   -13.452   -13.407     0.045     23.46
H(0)          8.116e-26
   H2              4.058e-26   7.079e-26   -25.392   -25.150     0.242     14.99
O(0)          0.000e+00
   O2              0.000e+00   0.000e+00   -42.310   -42.080     0.230     30.40

------------------------------Saturation indices-------------------------------

  Phase               SI** log IAP   log K(298 K,   1 atm)

  Fluorite          0.00    -10.61  -10.61  CaF2
  H2(g)           -22.05    -25.15   -3.10  H2
  H2O(g)           -1.51     -0.01    1.50  H2O
  O2(g)           -39.19    -42.08   -2.89  O2

**For a gas, SI = log10(fugacity). Fugacity = pressure * phi / 1 atm.
  For ideal gases, phi = 1.

------------------
End of simulation.
------------------

------------------------------------
Reading input data for simulation 6.
------------------------------------

	 SOLUTION 2
	  pH  7.0
	  Ca  36.0  Fluorite
	  F   0.8  mg/kgw   # OK
	  Cl 10   # charge
	END
-------------------------------------------
Beginning of initial solution calculations.
-------------------------------------------

Initial solution 2.	

-----------------------------Solution composition------------------------------

	Elements           Molality       Moles

	Ca                7.546e-02   7.546e-02  Equilibrium with Fluorite
	Cl                1.000e-02   1.000e-02
	F                 4.211e-05   4.211e-05

----------------------------Description of solution----------------------------

                                       pH  =   7.000    
                                       pe  =   4.000    
      Specific Conductance (µS/cm,  25°C)  = 6891
                          Density (g/cm³)  =   1.00153
                               Volume (L)  =   1.00184
                        Viscosity (mPa s)  =   0.91447
                        Activity of water  =   0.999
                 Ionic strength (mol/kgw)  =   1.559e-01
                       Mass of water (kg)  =   1.000e+00
                 Total alkalinity (eq/kg)  =   6.738e-08
                         Temperature (°C)  =  25.00
                  Electrical balance (eq)  =   1.409e-01
 Percent error, 100*(Cat-|An|)/(Cat+|An|)  =  87.52
                               Iterations  =   8
                                  Total H  = 1.110124e+02
                                  Total O  = 5.550622e+01

----------------------------Distribution of species----------------------------

                                               Log       Log       Log    mole V
   Species          Molality    Activity  Molality  Activity     Gamma   cm³/mol

   OH-             1.390e-07   1.011e-07    -6.857    -6.995    -0.139     -3.60
   H+              1.239e-07   1.000e-07    -6.907    -7.000    -0.093      0.00
   H2O             5.551e+01   9.985e-01     1.744    -0.001     0.000     18.07
Ca            7.546e-02
   Ca+2            7.546e-02   2.599e-02    -1.122    -1.585    -0.463    -17.30
   CaOH+           5.684e-08   4.307e-08    -7.245    -7.366    -0.121     (0)  
Cl            1.000e-02
   Cl-             1.000e-02   7.340e-03    -2.000    -2.134    -0.134     18.41
   HCl             2.170e-10   2.529e-10    -9.663    -9.597     0.066     20.36
F             4.211e-05
   F-              4.210e-05   3.061e-05    -4.376    -4.514    -0.139     -1.05
   HF              4.428e-09   4.590e-09    -8.354    -8.338     0.016     12.50
   HF2-            7.115e-13   5.390e-13   -12.148   -12.268    -0.121     22.40
H(0)          1.364e-25
   H2              6.818e-26   7.079e-26   -25.166   -25.150     0.016     14.99
O(0)          0.000e+00
   O2              0.000e+00   0.000e+00   -42.079   -42.064     0.016     30.40

------------------------------Saturation indices-------------------------------

  Phase               SI** log IAP   log K(298 K,   1 atm)

  Fluorite          0.00    -10.61  -10.61  CaF2
  H2(g)           -22.05    -25.15   -3.10  H2
  H2O(g)           -1.50     -0.00    1.50  H2O
  O2(g)           -39.17    -42.06   -2.89  O2

**For a gas, SI = log10(fugacity). Fugacity = pressure * phi / 1 atm.
  For ideal gases, phi = 1.

------------------
End of simulation.
------------------

------------------------------------
Reading input data for simulation 7.
------------------------------------

