WARNING: Database file from DATABASE keyword is used; command line argument ignored.
   Input file: multi_punch
  Output file: multi_punch.out
Database file: ../database/phreeqc.dat

------------------
Reading data base.
------------------

	SOLUTION_MASTER_SPECIES
	SOLUTION_SPECIES
	PHASES
	GAS_BINARY_PARAMETERS
	EXCHANGE_MASTER_SPECIES
	EXCHANGE_SPECIES
	SURFACE_MASTER_SPECIES
	SURFACE_SPECIES
	MEAN_GAMMAS
	RATES
	END
------------------------------------
Reading input data for simulation 1.
------------------------------------

	DATABASE ../database/phreeqc.dat
	SELECTED_OUTPUT 101
	    file                 multi_punch_101.sel
	USER_PUNCH 101
	    headings Mu SC
	    start
	10 PUNCH STR_F$(MU, 20, 12)
	20 PUNCH STR_F$(SC, 20, 10)
	    end
	SOLUTION 1
		pH      7 charge
		Na	1
		Cl	1
		Ca	1
		C	  2
	END
-------------------------------------------
Beginning of initial solution calculations.
-------------------------------------------

Initial solution 1.	

-----------------------------Solution composition------------------------------

	Elements           Molality       Moles

	C                 2.000e-03   2.000e-03
	Ca                1.000e-03   1.000e-03
	Cl                1.000e-03   1.000e-03
	Na                1.000e-03   1.000e-03

----------------------------Description of solution----------------------------

                                       pH  =   8.125      Charge balance
                                       pe  =   4.000    
      Specific Conductance (µS/cm,  25°C)  = 313
                          Density (g/cm³)  =   0.99722
                               Volume (L)  =   1.00301
                        Viscosity (mPa s)  =   0.89124
                        Activity of water  =   1.000
                 Ionic strength (mol/kgw)  =   3.971e-03
                       Mass of water (kg)  =   1.000e+00
                 Total alkalinity (eq/kg)  =   2.000e-03
                       Total CO2 (mol/kg)  =   2.000e-03
                         Temperature (°C)  =  25.00
                  Electrical balance (eq)  =  -5.275e-15
 Percent error, 100*(Cat-|An|)/(Cat+|An|)  =  -0.00
                               Iterations  =   6
                                  Total H  = 1.110144e+02
                                  Total O  = 5.551219e+01

----------------------------Distribution of species----------------------------

                                               Log       Log       Log    mole V
   Species          Molality    Activity  Molality  Activity     Gamma   cm³/mol

   OH-             1.445e-06   1.348e-06    -5.840    -5.870    -0.030     -4.07
   H+              7.990e-09   7.507e-09    -8.097    -8.125    -0.027      0.00
   H2O             5.551e+01   9.999e-01     1.744    -0.000     0.000     18.07
C(-4)         0.000e+00
   CH4             0.000e+00   0.000e+00   -77.120   -77.120     0.000     35.46
C(4)          2.000e-03
   HCO3-           1.939e-03   1.815e-03    -2.712    -2.741    -0.029     24.62
   CO2             3.061e-05   3.063e-05    -4.514    -4.514     0.000     34.79
   CO3-2           1.479e-05   1.134e-05    -4.830    -4.946    -0.116     -4.53
   CaCO3           1.436e-05   1.438e-05    -4.843    -4.842     0.000    -14.60
   NaHCO3          8.365e-07   8.377e-07    -6.078    -6.077     0.001     17.66
   CaHCO3+         1.283e-10   1.201e-10    -9.892    -9.920    -0.029      9.69
   (CO2)2          1.524e-11   1.525e-11   -10.817   -10.817     0.000     68.75
Ca            1.000e-03
   Ca+2            9.856e-04   7.549e-04    -3.006    -3.122    -0.116    -18.04
   CaCO3           1.436e-05   1.438e-05    -4.843    -4.842     0.000    -14.60
   CaOH+           1.786e-08   1.669e-08    -7.748    -7.778    -0.030     (0)  
   CaHCO3+         1.283e-10   1.201e-10    -9.892    -9.920    -0.029      9.69
Cl            1.000e-03
   Cl-             1.000e-03   9.336e-04    -3.000    -3.030    -0.030     18.10
   HCl             2.405e-12   2.414e-12   -11.619   -11.617     0.002     20.36
H(0)          7.971e-28
   H2              3.986e-28   3.989e-28   -27.400   -27.399     0.000     14.99
Na            1.000e-03
   Na+             9.992e-04   9.340e-04    -3.000    -3.030    -0.029     -1.43
   NaHCO3          8.365e-07   8.377e-07    -6.078    -6.077     0.001     17.66
O(0)          5.447e-38
   O2              2.724e-38   2.726e-38   -37.565   -37.564     0.000     30.40

------------------------------Saturation indices-------------------------------

  Phase               SI** log IAP   log K(298 K,   1 atm)

  Aragonite         0.27     -8.07   -8.34  CaCO3
  Calcite           0.38     -8.07   -8.45  CaCO3
  CH4(g)          -74.32    -77.12   -2.80  CH4
  CO2(g)           -3.05     -4.51   -1.47  CO2
  H2(g)           -24.30    -27.40   -3.10  H2
  H2O(g)           -1.50     -0.00    1.50  H2O
  Halite           -7.63     -6.06    1.57  NaCl
  O2(g)           -34.67    -37.56   -2.89  O2

**For a gas, SI = log10(fugacity). Fugacity = pressure * phi / 1 atm.
  For ideal gases, phi = 1.

------------------
End of simulation.
------------------

------------------------------------
Reading input data for simulation 2.
------------------------------------

	CALCULATE_VALUES
	TOTAL_C
	start
	10 save TOT("C")
	end
	END
------------------
End of simulation.
------------------

------------------------------------
Reading input data for simulation 3.
------------------------------------

	EQUILIBRIUM_PHASES 1
		CO2(g) -2
		Dolomite 0
	END
------------------
End of simulation.
------------------

------------------------------------
Reading input data for simulation 4.
------------------------------------

	REACTION 1
		HCl 1
		0.1 mmol
	END
------------------
End of simulation.
------------------

------------------------------------
Reading input data for simulation 5.
------------------------------------

	GAS_PHASE
		fixed_volume
		N2(g)	1.2
	END
------------------
End of simulation.
------------------

------------------------------------
Reading input data for simulation 6.
------------------------------------

	KINETICS
		Calcite
			tol    1e-8
			m0	 3.e-3
			m	3.e-3
			parms	1.67e6	  0.6
	END
------------------
End of simulation.
------------------

------------------------------------
Reading input data for simulation 7.
------------------------------------

	SOLID_SOLUTION
	Sulfate
		component 	Anhydrite	1.0
		component	Barite		1.0
	END
------------------
End of simulation.
------------------

------------------------------------
Reading input data for simulation 8.
------------------------------------

	RUN_CELLS
		-cell 1
	SELECTED_OUTPUT 
		file multi_punch_1.sel
		reset false
		simulation
		state
		solution
		distance
		time
		step
		ph
		pe
		reaction
		temperature
		alkalinity
		ionic_strength
		water
		charge_balance
		percent_error
		totals			Na	Ca
		molalities		Na+	HCO3-
		activities		Ca+2	CO3-2
		equilibrium_phases	CO2(g)	dolomite
		saturation_indices	Halite
		gases			N2(g)
		kinetics		Calcite
		solid_solutions	Anhydrite	Barite
		calculate_values       TOTAL_C
		inverse                false
	SELECTED_OUTPUT 2
		file multi_punch_2.sel
		si Halite Calcite
	USER_PUNCH 20
	heading Dummy
	10 PUNCH "Dummy"
	END
--------------------------
Beginning of run as cells.
--------------------------

-----------------------------------------
Beginning of batch-reaction calculations.
-----------------------------------------

Reaction step 1.

Using solution 1.	
Using pure phase assemblage 1.	
Using solid solution assemblage 1.	
Using gas phase 1.	
Using reaction 1.	
Using kinetics 1.	

Reaction 1.	

	  1.000e-04 moles of the following reaction have been added:

	                 Relative
	Reactant            moles

	HCl                  1.00000

	                 Relative
	Element             moles
	Cl                   1.00000
	H                    1.00000

Kinetics 1.	

	Time step: 1 seconds

	Rate name       Delta Moles Total Moles   Reactant        Coefficient

	Calcite           1.224e-06   3.001e-03   Calcite                   1

-----------------------------------Gas phase-----------------------------------

Total pressure:  1.18      atmospheres          (Peng-Robinson calculation)
    Gas volume:   1.00e+00 liters
  Molar volume:   2.07e+01 liters/mole
   P * Vm / RT:  0.99947  (Compressibility Factor Z) 

                                                        Moles in gas
                                            ----------------------------------
Component         log P           P    phi     Initial       Final       Delta

N2(g)              0.07   1.181e+00  0.999   4.907e-02   4.829e-02  -7.793e-04

-------------------------------Phase assemblage--------------------------------

                                                      Moles in assemblage
Phase               SI  log IAP  log K(T, P)   Initial       Final       Delta

CO2(g)           -2.00    -3.47     -1.47    1.000e+01   9.999e+00  -1.199e-03
Dolomite          0.00   -17.08    -17.08    1.000e+01   1.000e+01  -4.987e-04

--------------------------------Solid solutions--------------------------------


Solid solution                Component        Moles  Delta moles   Mole fract

Sulfate                                     1.99e+00
                              Anhydrite     9.87e-01    -1.29e-02     4.97e-01
                                 Barite     1.00e+00    -2.88e-08     5.03e-01

-----------------------------Solution composition------------------------------

	Elements           Molality       Moles

	Ba                2.877e-08   2.877e-08
	C                 4.195e-03   4.195e-03
	Ca                1.444e-02   1.444e-02
	Cl                1.100e-03   1.100e-03
	Mg                4.987e-04   4.987e-04
	N                 1.559e-03   1.559e-03
	Na                1.000e-03   1.000e-03
	S                 1.294e-02   1.294e-02

----------------------------Description of solution----------------------------

                                       pH  =   7.324      Charge balance
                                       pe  =   9.708      Adjusted to redox equilibrium
      Specific Conductance (µS/cm,  25°C)  = 2675
                          Density (g/cm³)  =   0.99910
                               Volume (L)  =   1.00305
                        Viscosity (mPa s)  =   0.89934
                        Activity of water  =   0.999
                 Ionic strength (mol/kgw)  =   4.447e-02
                       Mass of water (kg)  =   1.000e+00
                 Total alkalinity (eq/kg)  =   3.892e-03
                       Total CO2 (mol/kg)  =   4.195e-03
                         Temperature (°C)  =  25.00
                           Pressure (atm)  =  1.18
                  Electrical balance (eq)  =   2.238e-11
 Percent error, 100*(Cat-|An|)/(Cat+|An|)  =   0.00
                               Iterations  =  56
                                  Total H  = 1.110145e+02
                                  Total O  = 5.556934e+01

----------------------------Distribution of species----------------------------

                                               Log       Log       Log    mole V
   Species          Molality    Activity  Molality  Activity     Gamma   cm³/mol

   OH-             2.602e-07   2.132e-07    -6.585    -6.671    -0.087     -3.89
   H+              5.527e-08   4.745e-08    -7.257    -7.324    -0.066      0.00
   H2O             5.551e+01   9.995e-01     1.744    -0.000     0.000     18.07
Ba            2.877e-08
   Ba+2            2.821e-08   1.460e-08    -7.550    -7.836    -0.286    -12.87
   BaHCO3+         5.390e-10   4.462e-10    -9.268    -9.350    -0.082     (0)  
   BaCO3           2.353e-11   2.377e-11   -10.628   -10.624     0.004    -10.70
   BaOH+           1.253e-14   1.042e-14   -13.902   -13.982    -0.080     (0)  
C(-4)         0.000e+00
   CH4             0.000e+00   0.000e+00  -115.335  -115.330     0.004     35.46
C(4)          4.195e-03
   HCO3-           3.814e-03   3.187e-03    -2.419    -2.497    -0.078     25.01
   CO2             3.379e-04   3.402e-04    -3.471    -3.468     0.003     34.79
   CaCO3           2.824e-05   2.853e-05    -4.549    -4.545     0.004    -14.60
   MgHCO3+         6.977e-06   5.748e-06    -5.156    -5.241    -0.084      5.60
   CO3-2           6.478e-06   3.151e-06    -5.189    -5.502    -0.313     -3.80
   NaHCO3          1.239e-06   1.259e-06    -5.907    -5.900     0.007     17.66
   MgCO3           4.586e-07   4.633e-07    -6.339    -6.334     0.004    -17.09
   (CO2)2          1.869e-09   1.881e-09    -8.728    -8.726     0.003     68.75
   CaHCO3+         1.795e-09   1.507e-09    -8.746    -8.822    -0.076      9.79
   BaHCO3+         5.390e-10   4.462e-10    -9.268    -9.350    -0.082     (0)  
   BaCO3           2.353e-11   2.377e-11   -10.628   -10.624     0.004    -10.70
Ca            1.444e-02
   Ca+2            1.106e-02   5.391e-03    -1.956    -2.268    -0.312    -17.65
   CaSO4           3.347e-03   3.362e-03    -2.475    -2.473     0.002      7.22
   CaCO3           2.824e-05   2.853e-05    -4.549    -4.545     0.004    -14.60
   CaOH+           2.276e-08   1.885e-08    -7.643    -7.725    -0.082     (0)  
   CaHCO3+         1.795e-09   1.507e-09    -8.746    -8.822    -0.076      9.79
   CaHSO4+         1.615e-09   1.337e-09    -8.792    -8.874    -0.082     (0)  
Cl            1.100e-03
   Cl-             1.100e-03   9.041e-04    -2.959    -3.044    -0.085     18.24
   HCl             1.415e-11   1.478e-11   -10.849   -10.830     0.019     20.36
H(0)          1.211e-37
   H2              6.054e-38   6.120e-38   -37.218   -37.213     0.005     14.99
Mg            4.987e-04
   Mg+2            3.094e-04   1.541e-04    -3.510    -3.812    -0.303    -21.34
   MgSO4           1.768e-04   1.804e-04    -3.753    -3.744     0.009     -0.40
   MgHCO3+         6.977e-06   5.748e-06    -5.156    -5.241    -0.084      5.60
   Mg(SO4)2-2      5.151e-06   2.656e-06    -5.288    -5.576    -0.288     41.18
   MgCO3           4.586e-07   4.633e-07    -6.339    -6.334     0.004    -17.09
   MgOH+           1.398e-08   1.179e-08    -7.855    -7.929    -0.074     (0)  
N(-3)         0.000e+00
   NH4+            0.000e+00   0.000e+00   -44.342   -44.433    -0.092     18.06
   NH4SO4-         0.000e+00   0.000e+00   -45.354   -45.430    -0.076     34.76
   NH3             0.000e+00   0.000e+00   -46.358   -46.354     0.004     24.42
N(0)          1.559e-03
   N2              7.794e-04   7.874e-04    -3.108    -3.104     0.004     29.29
N(3)          9.667e-19
   NO2-            9.667e-19   7.875e-19   -18.015   -18.104    -0.089     25.14
N(5)          3.008e-13
   NO3-            3.008e-13   2.451e-13   -12.522   -12.611    -0.089     29.66
Na            1.000e-03
   Na+             9.609e-04   7.989e-04    -3.017    -3.098    -0.080     -1.23
   NaSO4-          3.788e-05   3.138e-05    -4.422    -4.503    -0.082     17.66
   NaHCO3          1.239e-06   1.259e-06    -5.907    -5.900     0.007     17.66
   Na2SO4          1.211e-11   1.222e-11   -10.917   -10.913     0.004     47.96
O(0)          2.291e-18
   O2              1.145e-18   1.157e-18   -17.941   -17.937     0.004     30.40
S(-2)         0.000e+00
   HS-             0.000e+00   0.000e+00  -112.189  -112.275    -0.087     20.77
   H2S             0.000e+00   0.000e+00  -112.662  -112.658     0.004     36.27
   S-2             0.000e+00   0.000e+00  -117.550  -117.870    -0.320     (0)  
   (H2S)2          0.000e+00   0.000e+00  -226.598  -226.593     0.004     30.10
S(6)          1.294e-02
   SO4-2           9.370e-03   4.471e-03    -2.028    -2.350    -0.321     14.91
   CaSO4           3.347e-03   3.362e-03    -2.475    -2.473     0.002      7.22
   MgSO4           1.768e-04   1.804e-04    -3.753    -3.744     0.009     -0.40
   NaSO4-          3.788e-05   3.138e-05    -4.422    -4.503    -0.082     17.66
   Mg(SO4)2-2      5.151e-06   2.656e-06    -5.288    -5.576    -0.288     41.18
   HSO4-           2.491e-08   2.062e-08    -7.604    -7.686    -0.082     40.44
   CaHSO4+         1.615e-09   1.337e-09    -8.792    -8.874    -0.082     (0)  
   Na2SO4          1.211e-11   1.222e-11   -10.917   -10.913     0.004     47.96
   NH4SO4-         0.000e+00   0.000e+00   -45.354   -45.430    -0.076     34.76

------------------------------Saturation indices-------------------------------

  Phase               SI** log IAP   log K(298 K,   1 atm)

  Anhydrite        -0.30     -4.62   -4.31  CaSO4
  Aragonite         0.57     -7.77   -8.34  CaCO3
  Barite           -0.30    -10.19   -9.89  BaSO4
  Calcite           0.68     -7.77   -8.45  CaCO3
  CH4(g)         -112.53   -115.33   -2.80  CH4
  CO2(g)           -2.00     -3.47   -1.47  CO2	 Pressure   0.0 atm, phi 1.000
  Dolomite          0.00    -17.08  -17.08  CaMg(CO3)2
  Epsomite         -4.42     -6.16   -1.74  MgSO4:7H2O
  Gypsum           -0.07     -4.62   -4.55  CaSO4:2H2O
  H2(g)           -34.11    -37.21   -3.10  H2
  H2O(g)           -1.50     -0.00    1.50  H2O
  H2S(g)         -111.66   -119.60   -7.94  H2S
  Halite           -7.71     -6.14    1.57  NaCl
  Hexahydrite      -4.60     -6.16   -1.57  MgSO4:6H2O
  Kieserite        -5.00     -6.16   -1.16  MgSO4:H2O
  Mirabilite       -7.84     -8.55   -0.71  Na2SO4:10H2O
  N2(g)             0.07     -3.10   -3.18  N2	 Pressure   1.2 atm, phi 0.999
  NH3(g)          -48.15    -46.35    1.80  NH3
  O2(g)           -15.04    -17.94   -2.89  O2
  Sulfur          -83.48    -78.59    4.88  S
  Thenardite       -9.19     -8.54    0.65  Na2SO4
  Witherite        -4.78    -13.34   -8.56  BaCO3

**For a gas, SI = log10(fugacity). Fugacity = pressure * phi / 1 atm.
  For ideal gases, phi = 1.

------------------
End of simulation.
------------------

------------------------------------
Reading input data for simulation 9.
------------------------------------

	USER_PUNCH 2
	heading DUMMY_1 DUMMY_2
	10 PUNCH "Dummy1", "Dummy2"
	RUN_CELLS
		-cell 1
	SELECTED_OUTPUT 1
		active false
	END
--------------------------
Beginning of run as cells.
--------------------------

-----------------------------------------
Beginning of batch-reaction calculations.
-----------------------------------------

Reaction step 1.

Using solution 1.	Solution after simulation 8.
Using pure phase assemblage 1.	Pure-phase assemblage after simulation 8.
Using solid solution assemblage 1.	Solid solution assemblage after simulation 8
Using gas phase 1.	Gas phase after simulation 8.
Using reaction 1.	
Using kinetics 1.	

Reaction 1.	

	  1.000e-04 moles of the following reaction have been added:

	                 Relative
	Reactant            moles

	HCl                  1.00000

	                 Relative
	Element             moles
	Cl                   1.00000
	H                    1.00000

Kinetics 1.	

	Time step: 1 seconds

	Rate name       Delta Moles Total Moles   Reactant        Coefficient

	Calcite           1.204e-06   3.002e-03   Calcite                   1

-----------------------------------Gas phase-----------------------------------

Total pressure:  1.18      atmospheres          (Peng-Robinson calculation)
    Gas volume:   1.00e+00 liters
  Molar volume:   2.07e+01 liters/mole
   P * Vm / RT:  0.99947  (Compressibility Factor Z) 

                                                        Moles in gas
                                            ----------------------------------
Component         log P           P    phi     Initial       Final       Delta

N2(g)              0.07   1.181e+00  0.999   4.829e-02   4.829e-02   1.329e-08

-------------------------------Phase assemblage--------------------------------

                                                      Moles in assemblage
Phase               SI  log IAP  log K(T, P)   Initial       Final       Delta

CO2(g)           -2.00    -3.47     -1.47    9.999e+00   9.999e+00   6.638e-05
Dolomite         -0.00   -17.08    -17.08    1.000e+01   9.999e+00  -1.713e-05

--------------------------------Solid solutions--------------------------------


Solid solution                Component        Moles  Delta moles   Mole fract

Sulfate                                     1.99e+00
                              Anhydrite     9.87e-01    -6.08e-07     4.97e-01
                                 Barite     1.00e+00    -3.70e-11     5.03e-01

-----------------------------Solution composition------------------------------

	Elements           Molality       Moles

	Ba                2.881e-08   2.881e-08
	C                 4.162e-03   4.162e-03
	Ca                1.446e-02   1.446e-02
	Cl                1.200e-03   1.200e-03
	Mg                5.159e-04   5.158e-04
	N                 1.559e-03   1.559e-03
	Na                1.000e-03   1.000e-03
	S                 1.294e-02   1.294e-02

----------------------------Description of solution----------------------------

                                       pH  =   7.320      Charge balance
                                       pe  =   9.713      Adjusted to redox equilibrium
      Specific Conductance (µS/cm,  25°C)  = 2681
                          Density (g/cm³)  =   0.99910
                               Volume (L)  =   1.00305
                        Viscosity (mPa s)  =   0.89933
                        Activity of water  =   0.999
                 Ionic strength (mol/kgw)  =   4.455e-02
                       Mass of water (kg)  =   1.000e+00
                 Total alkalinity (eq/kg)  =   3.859e-03
                       Total CO2 (mol/kg)  =   4.162e-03
                         Temperature (°C)  =  25.00
                           Pressure (atm)  =  1.18
                  Electrical balance (eq)  =   4.569e-11
 Percent error, 100*(Cat-|An|)/(Cat+|An|)  =   0.00
                               Iterations  =  36
                                  Total H  = 1.110146e+02
                                  Total O  = 5.556931e+01

----------------------------Distribution of species----------------------------

                                               Log       Log       Log    mole V
   Species          Molality    Activity  Molality  Activity     Gamma   cm³/mol

   OH-             2.580e-07   2.113e-07    -6.588    -6.675    -0.087     -3.89
   H+              5.577e-08   4.787e-08    -7.254    -7.320    -0.066      0.00
   H2O             5.551e+01   9.995e-01     1.744    -0.000     0.000     18.07
Ba            2.881e-08
   Ba+2            2.825e-08   1.462e-08    -7.549    -7.835    -0.286    -12.87
   BaHCO3+         5.349e-10   4.428e-10    -9.272    -9.354    -0.082     (0)  
   BaCO3           2.314e-11   2.338e-11   -10.636   -10.631     0.004    -10.70
   BaOH+           1.243e-14   1.034e-14   -13.905   -13.985    -0.080     (0)  
C(-4)         0.000e+00
   CH4             0.000e+00   0.000e+00  -115.346  -115.341     0.004     35.46
C(4)          4.162e-03
   HCO3-           3.781e-03   3.159e-03    -2.422    -2.500    -0.078     25.01
   CO2             3.379e-04   3.402e-04    -3.471    -3.468     0.003     34.79
   CaCO3           2.778e-05   2.807e-05    -4.556    -4.552     0.004    -14.60
   MgHCO3+         7.157e-06   5.895e-06    -5.145    -5.230    -0.084      5.60
   CO3-2           6.369e-06   3.096e-06    -5.196    -5.509    -0.313     -3.80
   NaHCO3          1.228e-06   1.247e-06    -5.911    -5.904     0.007     17.66
   MgCO3           4.662e-07   4.710e-07    -6.331    -6.327     0.004    -17.09
   (CO2)2          1.869e-09   1.881e-09    -8.728    -8.726     0.003     68.75
   CaHCO3+         1.781e-09   1.495e-09    -8.749    -8.825    -0.076      9.79
   BaHCO3+         5.349e-10   4.428e-10    -9.272    -9.354    -0.082     (0)  
   BaCO3           2.314e-11   2.338e-11   -10.636   -10.631     0.004    -10.70
Ca            1.446e-02
   Ca+2            1.108e-02   5.397e-03    -1.955    -2.268    -0.312    -17.65
   CaSO4           3.347e-03   3.362e-03    -2.475    -2.473     0.002      7.22
   CaCO3           2.778e-05   2.807e-05    -4.556    -4.552     0.004    -14.60
   CaOH+           2.259e-08   1.870e-08    -7.646    -7.728    -0.082     (0)  
   CaHCO3+         1.781e-09   1.495e-09    -8.749    -8.825    -0.076      9.79
   CaHSO4+         1.629e-09   1.349e-09    -8.788    -8.870    -0.082     (0)  
Cl            1.200e-03
   Cl-             1.200e-03   9.862e-04    -2.921    -3.006    -0.085     18.24
   HCl             1.557e-11   1.626e-11   -10.808   -10.789     0.019     20.36
H(0)          1.203e-37
   H2              6.017e-38   6.083e-38   -37.221   -37.216     0.005     14.99
Mg            5.159e-04
   Mg+2            3.202e-04   1.595e-04    -3.495    -3.797    -0.303    -21.34
   MgSO4           1.827e-04   1.865e-04    -3.738    -3.729     0.009     -0.40
   MgHCO3+         7.157e-06   5.895e-06    -5.145    -5.230    -0.084      5.60
   Mg(SO4)2-2      5.320e-06   2.742e-06    -5.274    -5.562    -0.288     41.18
   MgCO3           4.662e-07   4.710e-07    -6.331    -6.327     0.004    -17.09
   MgOH+           1.434e-08   1.209e-08    -7.843    -7.918    -0.074     (0)  
N(-3)         0.000e+00
   NH4+            0.000e+00   0.000e+00   -44.342   -44.434    -0.092     18.06
   NH4SO4-         0.000e+00   0.000e+00   -45.355   -45.431    -0.076     34.76
   NH3             0.000e+00   0.000e+00   -46.362   -46.358     0.004     24.42
N(0)          1.559e-03
   N2              7.793e-04   7.874e-04    -3.108    -3.104     0.004     29.29
N(3)          9.672e-19
   NO2-            9.672e-19   7.878e-19   -18.014   -18.104    -0.089     25.14
N(5)          3.028e-13
   NO3-            3.028e-13   2.467e-13   -12.519   -12.608    -0.089     29.66
Na            1.000e-03
   Na+             9.609e-04   7.988e-04    -3.017    -3.098    -0.080     -1.23
   NaSO4-          3.784e-05   3.134e-05    -4.422    -4.504    -0.082     17.67
   NaHCO3          1.228e-06   1.247e-06    -5.911    -5.904     0.007     17.66
   Na2SO4          1.209e-11   1.220e-11   -10.917   -10.914     0.004     47.96
O(0)          2.319e-18
   O2              1.159e-18   1.171e-18   -17.936   -17.931     0.004     30.40
S(-2)         0.000e+00
   HS-             0.000e+00   0.000e+00  -112.196  -112.283    -0.087     20.77
   H2S             0.000e+00   0.000e+00  -112.665  -112.661     0.004     36.27
   S-2             0.000e+00   0.000e+00  -117.561  -117.881    -0.320     (0)  
   (H2S)2          0.000e+00   0.000e+00  -226.605  -226.600     0.004     30.10
S(6)          1.294e-02
   SO4-2           9.364e-03   4.466e-03    -2.029    -2.350    -0.322     14.91
   CaSO4           3.347e-03   3.362e-03    -2.475    -2.473     0.002      7.22
   MgSO4           1.827e-04   1.865e-04    -3.738    -3.729     0.009     -0.40
   NaSO4-          3.784e-05   3.134e-05    -4.422    -4.504    -0.082     17.67
   Mg(SO4)2-2      5.320e-06   2.742e-06    -5.274    -5.562    -0.288     41.18
   HSO4-           2.511e-08   2.078e-08    -7.600    -7.682    -0.082     40.44
   CaHSO4+         1.629e-09   1.349e-09    -8.788    -8.870    -0.082     (0)  
   Na2SO4          1.209e-11   1.220e-11   -10.917   -10.914     0.004     47.96
   NH4SO4-         0.000e+00   0.000e+00   -45.355   -45.431    -0.076     34.76

------------------------------Saturation indices-------------------------------

  Phase               SI** log IAP   log K(298 K,   1 atm)

  Anhydrite        -0.30     -4.62   -4.31  CaSO4
  Aragonite         0.56     -7.78   -8.34  CaCO3
  Barite           -0.30    -10.19   -9.89  BaSO4
  Calcite           0.67     -7.78   -8.45  CaCO3
  CH4(g)         -112.54   -115.34   -2.80  CH4
  CO2(g)           -2.00     -3.47   -1.47  CO2	 Pressure   0.0 atm, phi 1.000
  Dolomite         -0.00    -17.08  -17.08  CaMg(CO3)2
  Epsomite         -4.41     -6.15   -1.74  MgSO4:7H2O
  Gypsum           -0.07     -4.62   -4.55  CaSO4:2H2O
  H2(g)           -34.12    -37.22   -3.10  H2
  H2O(g)           -1.50     -0.00    1.50  H2O
  H2S(g)         -111.67   -119.60   -7.94  H2S
  Halite           -7.67     -6.10    1.57  NaCl
  Hexahydrite      -4.58     -6.15   -1.57  MgSO4:6H2O
  Kieserite        -4.99     -6.15   -1.16  MgSO4:H2O
  Mirabilite       -7.84     -8.55   -0.71  Na2SO4:10H2O
  N2(g)             0.07     -3.10   -3.18  N2	 Pressure   1.2 atm, phi 0.999
  NH3(g)          -48.15    -46.36    1.80  NH3
  O2(g)           -15.04    -17.93   -2.89  O2
  Sulfur          -83.48    -78.60    4.88  S
  Thenardite       -9.20     -8.55    0.65  Na2SO4
  Witherite        -4.78    -13.34   -8.56  BaCO3

**For a gas, SI = log10(fugacity). Fugacity = pressure * phi / 1 atm.
  For ideal gases, phi = 1.

------------------
End of simulation.
------------------

-------------------------------------
Reading input data for simulation 10.
-------------------------------------

	RUN_CELLS
		-cell 1
	SELECTED_OUTPUT 1
		active true
	END
--------------------------
Beginning of run as cells.
--------------------------

-----------------------------------------
Beginning of batch-reaction calculations.
-----------------------------------------

Reaction step 1.

Using solution 1.	Solution after simulation 9.
Using pure phase assemblage 1.	Pure-phase assemblage after simulation 9.
Using solid solution assemblage 1.	Solid solution assemblage after simulation 9
Using gas phase 1.	Gas phase after simulation 9.
Using reaction 1.	
Using kinetics 1.	

Reaction 1.	

	  1.000e-04 moles of the following reaction have been added:

	                 Relative
	Reactant            moles

	HCl                  1.00000

	                 Relative
	Element             moles
	Cl                   1.00000
	H                    1.00000

Kinetics 1.	

	Time step: 1 seconds

	Rate name       Delta Moles Total Moles   Reactant        Coefficient

	Calcite           1.185e-06   3.004e-03   Calcite                   1

-----------------------------------Gas phase-----------------------------------

Total pressure:  1.18      atmospheres          (Peng-Robinson calculation)
    Gas volume:   1.00e+00 liters
  Molar volume:   2.07e+01 liters/mole
   P * Vm / RT:  0.99947  (Compressibility Factor Z) 

                                                        Moles in gas
                                            ----------------------------------
Component         log P           P    phi     Initial       Final       Delta

N2(g)              0.07   1.181e+00  0.999   4.829e-02   4.829e-02   1.350e-08

-------------------------------Phase assemblage--------------------------------

                                                      Moles in assemblage
Phase               SI  log IAP  log K(T, P)   Initial       Final       Delta

CO2(g)           -2.00    -3.47     -1.47    9.999e+00   9.999e+00   6.593e-05
Dolomite         -0.00   -17.08    -17.08    9.999e+00   9.999e+00  -1.736e-05

--------------------------------Solid solutions--------------------------------


Solid solution                Component        Moles  Delta moles   Mole fract

Sulfate                                     1.99e+00
                              Anhydrite     9.87e-01    -6.17e-07     4.97e-01
                                 Barite     1.00e+00    -3.77e-11     5.03e-01

-----------------------------Solution composition------------------------------

	Elements           Molality       Moles

	Ba                2.885e-08   2.885e-08
	C                 4.129e-03   4.129e-03
	Ca                1.447e-02   1.447e-02
	Cl                1.300e-03   1.300e-03
	Mg                5.332e-04   5.332e-04
	N                 1.559e-03   1.559e-03
	Na                1.000e-03   1.000e-03
	S                 1.294e-02   1.294e-02

----------------------------Description of solution----------------------------

                                       pH  =   7.316      Charge balance
                                       pe  =   9.717      Adjusted to redox equilibrium
      Specific Conductance (µS/cm,  25°C)  = 2688
                          Density (g/cm³)  =   0.99911
                               Volume (L)  =   1.00306
                        Viscosity (mPa s)  =   0.89933
                        Activity of water  =   0.999
                 Ionic strength (mol/kgw)  =   4.463e-02
                       Mass of water (kg)  =   1.000e+00
                 Total alkalinity (eq/kg)  =   3.826e-03
                       Total CO2 (mol/kg)  =   4.129e-03
                         Temperature (°C)  =  25.00
                           Pressure (atm)  =  1.18
                  Electrical balance (eq)  =   6.879e-11
 Percent error, 100*(Cat-|An|)/(Cat+|An|)  =   0.00
                               Iterations  =  36
                                  Total H  = 1.110147e+02
                                  Total O  = 5.556928e+01

----------------------------Distribution of species----------------------------

                                               Log       Log       Log    mole V
   Species          Molality    Activity  Molality  Activity     Gamma   cm³/mol

   OH-             2.558e-07   2.095e-07    -6.592    -6.679    -0.087     -3.89
   H+              5.625e-08   4.829e-08    -7.250    -7.316    -0.066      0.00
   H2O             5.551e+01   9.995e-01     1.744    -0.000     0.000     18.07
Ba            2.885e-08
   Ba+2            2.829e-08   1.464e-08    -7.548    -7.835    -0.286    -12.87
   BaHCO3+         5.310e-10   4.395e-10    -9.275    -9.357    -0.082     (0)  
   BaCO3           2.277e-11   2.301e-11   -10.643   -10.638     0.004    -10.70
   BaOH+           1.234e-14   1.027e-14   -13.909   -13.989    -0.080     (0)  
C(-4)         0.000e+00
   CH4             0.000e+00   0.000e+00  -115.351  -115.346     0.004     35.46
C(4)          4.129e-03
   HCO3-           3.749e-03   3.132e-03    -2.426    -2.504    -0.078     25.01
   CO2             3.379e-04   3.402e-04    -3.471    -3.468     0.003     34.79
   CaCO3           2.734e-05   2.762e-05    -4.563    -4.559     0.004    -14.60
   MgHCO3+         7.337e-06   6.042e-06    -5.134    -5.219    -0.084      5.60
   CO3-2           6.263e-06   3.043e-06    -5.203    -5.517    -0.313     -3.80
   NaHCO3          1.218e-06   1.237e-06    -5.914    -5.908     0.007     17.66
   MgCO3           4.738e-07   4.787e-07    -6.324    -6.320     0.004    -17.09
   (CO2)2          1.869e-09   1.881e-09    -8.728    -8.726     0.003     68.75
   CaHCO3+         1.768e-09   1.484e-09    -8.753    -8.829    -0.076      9.79
   BaHCO3+         5.310e-10   4.395e-10    -9.275    -9.357    -0.082     (0)  
   BaCO3           2.277e-11   2.301e-11   -10.643   -10.638     0.004    -10.70
Ca            1.447e-02
   Ca+2            1.110e-02   5.403e-03    -1.955    -2.267    -0.313    -17.65
   CaSO4           3.347e-03   3.362e-03    -2.475    -2.473     0.002      7.22
   CaCO3           2.734e-05   2.762e-05    -4.563    -4.559     0.004    -14.60
   CaOH+           2.242e-08   1.856e-08    -7.649    -7.731    -0.082     (0)  
   CaHCO3+         1.768e-09   1.484e-09    -8.753    -8.829    -0.076      9.79
   CaHSO4+         1.644e-09   1.361e-09    -8.784    -8.866    -0.082     (0)  
Cl            1.300e-03
   Cl-             1.300e-03   1.068e-03    -2.886    -2.971    -0.085     18.24
   HCl             1.701e-11   1.777e-11   -10.769   -10.750     0.019     20.36
H(0)          1.200e-37
   H2              6.000e-38   6.065e-38   -37.222   -37.217     0.005     14.99
Mg            5.332e-04
   Mg+2            3.312e-04   1.649e-04    -3.480    -3.783    -0.303    -21.34
   MgSO4           1.887e-04   1.926e-04    -3.724    -3.715     0.009     -0.40
   MgHCO3+         7.337e-06   6.042e-06    -5.134    -5.219    -0.084      5.60
   Mg(SO4)2-2      5.491e-06   2.829e-06    -5.260    -5.548    -0.288     41.18
   MgCO3           4.738e-07   4.787e-07    -6.324    -6.320     0.004    -17.09
   MgOH+           1.470e-08   1.239e-08    -7.833    -7.907    -0.074     (0)  
N(-3)         0.000e+00
   NH4+            0.000e+00   0.000e+00   -44.340   -44.432    -0.092     18.06
   NH4SO4-         0.000e+00   0.000e+00   -45.354   -45.429    -0.076     34.76
   NH3             0.000e+00   0.000e+00   -46.364   -46.360     0.004     24.42
N(0)          1.559e-03
   N2              7.793e-04   7.874e-04    -3.108    -3.104     0.004     29.29
N(3)          9.632e-19
   NO2-            9.632e-19   7.844e-19   -18.016   -18.105    -0.089     25.14
N(5)          3.025e-13
   NO3-            3.025e-13   2.463e-13   -12.519   -12.609    -0.089     29.66
Na            1.000e-03
   Na+             9.610e-04   7.988e-04    -3.017    -3.098    -0.080     -1.23
   NaSO4-          3.780e-05   3.130e-05    -4.423    -4.504    -0.082     17.67
   NaHCO3          1.218e-06   1.237e-06    -5.914    -5.908     0.007     17.66
   Na2SO4          1.208e-11   1.219e-11   -10.918   -10.914     0.004     47.96
O(0)          2.332e-18
   O2              1.166e-18   1.178e-18   -17.933   -17.929     0.004     30.40
S(-2)         0.000e+00
   HS-             0.000e+00   0.000e+00  -112.198  -112.284    -0.087     20.77
   H2S             0.000e+00   0.000e+00  -112.663  -112.659     0.004     36.27
   S-2             0.000e+00   0.000e+00  -117.566  -117.886    -0.320     (0)  
   (H2S)2          0.000e+00   0.000e+00  -226.601  -226.596     0.004     30.10
S(6)          1.294e-02
   SO4-2           9.358e-03   4.461e-03    -2.029    -2.351    -0.322     14.91
   CaSO4           3.347e-03   3.362e-03    -2.475    -2.473     0.002      7.22
   MgSO4           1.887e-04   1.926e-04    -3.724    -3.715     0.009     -0.40
   NaSO4-          3.780e-05   3.130e-05    -4.423    -4.504    -0.082     17.67
   Mg(SO4)2-2      5.491e-06   2.829e-06    -5.260    -5.548    -0.288     41.18
   HSO4-           2.530e-08   2.094e-08    -7.597    -7.679    -0.082     40.44
   CaHSO4+         1.644e-09   1.361e-09    -8.784    -8.866    -0.082     (0)  
   Na2SO4          1.208e-11   1.219e-11   -10.918   -10.914     0.004     47.96
   NH4SO4-         0.000e+00   0.000e+00   -45.354   -45.429    -0.076     34.76

------------------------------Saturation indices-------------------------------

  Phase               SI** log IAP   log K(298 K,   1 atm)

  Anhydrite        -0.30     -4.62   -4.31  CaSO4
  Aragonite         0.55     -7.78   -8.34  CaCO3
  Barite           -0.30    -10.19   -9.89  BaSO4
  Calcite           0.66     -7.78   -8.45  CaCO3
  CH4(g)         -112.54   -115.35   -2.80  CH4
  CO2(g)           -2.00     -3.47   -1.47  CO2	 Pressure   0.0 atm, phi 1.000
  Dolomite         -0.00    -17.08  -17.08  CaMg(CO3)2
  Epsomite         -4.40     -6.14   -1.74  MgSO4:7H2O
  Gypsum           -0.07     -4.62   -4.55  CaSO4:2H2O
  H2(g)           -34.12    -37.22   -3.10  H2
  H2O(g)           -1.50     -0.00    1.50  H2O
  H2S(g)         -111.66   -119.60   -7.94  H2S
  Halite           -7.64     -6.07    1.57  NaCl
  Hexahydrite      -4.57     -6.13   -1.57  MgSO4:6H2O
  Kieserite        -4.97     -6.13   -1.16  MgSO4:H2O
  Mirabilite       -7.84     -8.55   -0.71  Na2SO4:10H2O
  N2(g)             0.07     -3.10   -3.18  N2	 Pressure   1.2 atm, phi 0.999
  NH3(g)          -48.16    -46.36    1.80  NH3
  O2(g)           -15.04    -17.93   -2.89  O2
  Sulfur          -83.47    -78.59    4.88  S
  Thenardite       -9.20     -8.55    0.65  Na2SO4
  Witherite        -4.79    -13.35   -8.56  BaCO3

**For a gas, SI = log10(fugacity). Fugacity = pressure * phi / 1 atm.
  For ideal gases, phi = 1.

------------------
End of simulation.
------------------

-------------------------------------
Reading input data for simulation 11.
-------------------------------------

	SOLUTION 2
		pH 7 charge
	END
-------------------------------------------
Beginning of initial solution calculations.
-------------------------------------------

Initial solution 2.	

-----------------------------Solution composition------------------------------

	Elements           Molality       Moles

	Pure water     

----------------------------Description of solution----------------------------

                                       pH  =   6.997      Charge balance
                                       pe  =   4.000    
      Specific Conductance (µS/cm,  25°C)  = 0
                          Density (g/cm³)  =   0.99704
                               Volume (L)  =   1.00297
                        Viscosity (mPa s)  =   0.89002
                        Activity of water  =   1.000
                 Ionic strength (mol/kgw)  =   1.006e-07
                       Mass of water (kg)  =   1.000e+00
                 Total alkalinity (eq/kg)  =   3.040e-17
                         Temperature (°C)  =  25.00
                  Electrical balance (eq)  =  -3.040e-17
 Percent error, 100*(Cat-|An|)/(Cat+|An|)  =  -0.00
                               Iterations  =   2
                                  Total H  = 1.110124e+02
                                  Total O  = 5.550622e+01

----------------------------Distribution of species----------------------------

                                               Log       Log       Log    mole V
   Species          Molality    Activity  Molality  Activity     Gamma   cm³/mol

   OH-             1.006e-07   1.006e-07    -6.997    -6.997    -0.000     -4.14
   H+              1.006e-07   1.006e-07    -6.997    -6.997    -0.000      0.00
   H2O             5.551e+01   1.000e+00     1.744    -0.000     0.000     18.07
H(0)          1.433e-25
   H2              7.166e-26   7.166e-26   -25.145   -25.145     0.000     14.99
O(0)          0.000e+00
   O2              0.000e+00   0.000e+00   -42.073   -42.073     0.000     30.40

------------------------------Saturation indices-------------------------------

  Phase               SI** log IAP   log K(298 K,   1 atm)

  H2(g)           -22.05    -25.14   -3.10  H2
  H2O(g)           -1.50     -0.00    1.50  H2O
  O2(g)           -39.18    -42.07   -2.89  O2

**For a gas, SI = log10(fugacity). Fugacity = pressure * phi / 1 atm.
  For ideal gases, phi = 1.

------------------
End of simulation.
------------------

-------------------------------------
Reading input data for simulation 12.
-------------------------------------

	SOLUTION 3
		pH 7 charge
		Na	1
		Cl	1
	END
-------------------------------------------
Beginning of initial solution calculations.
-------------------------------------------

Initial solution 3.	

-----------------------------Solution composition------------------------------

	Elements           Molality       Moles

	Cl                1.000e-03   1.000e-03
	Na                1.000e-03   1.000e-03

----------------------------Description of solution----------------------------

                                       pH  =   6.997      Charge balance
                                       pe  =   4.000    
      Specific Conductance (µS/cm,  25°C)  = 122
                          Density (g/cm³)  =   0.99708
                               Volume (L)  =   1.00298
                        Viscosity (mPa s)  =   0.89026
                        Activity of water  =   1.000
                 Ionic strength (mol/kgw)  =   1.000e-03
                       Mass of water (kg)  =   1.000e+00
                 Total alkalinity (eq/kg)  =  -1.616e-20
                         Temperature (°C)  =  25.00
                  Electrical balance (eq)  =  -2.068e-17
 Percent error, 100*(Cat-|An|)/(Cat+|An|)  =  -0.00
                               Iterations  =   3
                                  Total H  = 1.110124e+02
                                  Total O  = 5.550622e+01

----------------------------Distribution of species----------------------------

                                               Log       Log       Log    mole V
   Species          Molality    Activity  Molality  Activity     Gamma   cm³/mol

   OH-             1.042e-07   1.005e-07    -6.982    -6.998    -0.016     -4.11
   H+              1.042e-07   1.007e-07    -6.982    -6.997    -0.015      0.00
   H2O             5.551e+01   1.000e+00     1.744    -0.000     0.000     18.07
Cl            1.000e-03
   Cl-             1.000e-03   9.649e-04    -3.000    -3.016    -0.016     18.07
   HCl             3.343e-11   3.347e-11   -10.476   -10.475     0.000     20.36
H(0)          1.435e-25
   H2              7.175e-26   7.176e-26   -25.144   -25.144     0.000     14.99
Na            1.000e-03
   Na+             1.000e-03   9.652e-04    -3.000    -3.015    -0.015     -1.48
O(0)          0.000e+00
   O2              0.000e+00   0.000e+00   -42.075   -42.074     0.000     30.40

------------------------------Saturation indices-------------------------------

  Phase               SI** log IAP   log K(298 K,   1 atm)

  H2(g)           -22.04    -25.14   -3.10  H2
  H2O(g)           -1.50     -0.00    1.50  H2O
  Halite           -7.60     -6.03    1.57  NaCl
  O2(g)           -39.18    -42.07   -2.89  O2

**For a gas, SI = log10(fugacity). Fugacity = pressure * phi / 1 atm.
  For ideal gases, phi = 1.

------------------
End of simulation.
------------------

-------------------------------------
Reading input data for simulation 13.
-------------------------------------

	SELECTED_OUTPUT 101
		active false
	INVERSE_MODELING
		solutions  2 3
		phases
			Halite
	SELECTED_OUTPUT 3
		reset false
		file multi_punch_3.sel
	END
---------------------------------------------
Beginning of inverse modeling 1 calculations.
---------------------------------------------

Using Cl1 standard precision optimization routine.
WARNING: H(0) is included in solution 2, but is not included as a mass-balance constraint.
WARNING: H(0) is included in solution 3, but is not included as a mass-balance constraint.

Solution 2: 

                         Input          Delta    Input+Delta
     Alkalinity      0.000e+00  +   0.000e+00  =   0.000e+00
             Cl      0.000e+00  +   0.000e+00  =   0.000e+00
             Na      0.000e+00  +   0.000e+00  =   0.000e+00

Solution 3: 

                         Input          Delta    Input+Delta
     Alkalinity      0.000e+00  +   0.000e+00  =   0.000e+00
             Cl      1.000e-03  +   0.000e+00  =   1.000e-03
             Na      1.000e-03  +   0.000e+00  =   1.000e-03

Solution fractions:                   Minimum        Maximum
   Solution   2      1.000e+00      0.000e+00      0.000e+00
   Solution   3      1.000e+00      0.000e+00      0.000e+00

Phase mole transfers:                 Minimum        Maximum   Formula             (Approximate SI in solution 2, 3 at 298 K,   1 atm)
         Halite      1.000e-03      0.000e+00      0.000e+00   NaCl                       (      , -7.60)

Redox mole transfers:    

Sum of residuals (epsilons in documentation):         4.120e-13
Sum of delta/uncertainty limit:                       0.000e+00
Maximum fractional error in element concentration:    0.000e+00

Model contains minimum number of phases.
===============================================================================


Summary of inverse modeling:

	Number of models found: 1
	Number of minimal models found: 1
	Number of infeasible sets of phases saved: 2
	Number of calls to cl1: 6
------------------
End of simulation.
------------------

-------------------------------------
Reading input data for simulation 14.
-------------------------------------

	RUN_CELLS
		-cell 1
--------------------------
Beginning of run as cells.
--------------------------

-----------------------------------------
Beginning of batch-reaction calculations.
-----------------------------------------

Reaction step 1.

Using solution 1.	Solution after simulation 10.
Using pure phase assemblage 1.	Pure-phase assemblage after simulation 10.
Using solid solution assemblage 1.	Solid solution assemblage after simulation 10
Using gas phase 1.	Gas phase after simulation 10.
Using reaction 1.	
Using kinetics 1.	

Reaction 1.	

	  1.000e-04 moles of the following reaction have been added:

	                 Relative
	Reactant            moles

	HCl                  1.00000

	                 Relative
	Element             moles
	Cl                   1.00000
	H                    1.00000

Kinetics 1.	

	Time step: 1 seconds

	Rate name       Delta Moles Total Moles   Reactant        Coefficient

	Calcite           1.166e-06   3.005e-03   Calcite                   1

-----------------------------------Gas phase-----------------------------------

Total pressure:  1.18      atmospheres          (Peng-Robinson calculation)
    Gas volume:   1.00e+00 liters
  Molar volume:   2.07e+01 liters/mole
   P * Vm / RT:  0.99947  (Compressibility Factor Z) 

                                                        Moles in gas
                                            ----------------------------------
Component         log P           P    phi     Initial       Final       Delta

N2(g)              0.07   1.181e+00  0.999   4.829e-02   4.829e-02   1.283e-08

-------------------------------Phase assemblage--------------------------------

                                                      Moles in assemblage
Phase               SI  log IAP  log K(T, P)   Initial       Final       Delta

CO2(g)           -2.00    -3.47     -1.47    9.999e+00   9.999e+00   6.549e-05
Dolomite         -0.00   -17.08    -17.08    9.999e+00   9.999e+00  -1.758e-05

--------------------------------Solid solutions--------------------------------


Solid solution                Component        Moles  Delta moles   Mole fract

Sulfate                                     1.99e+00
                              Anhydrite     9.87e-01    -6.26e-07     4.97e-01
                                 Barite     1.00e+00    -3.84e-11     5.03e-01

-----------------------------Solution composition------------------------------

	Elements           Molality       Moles

	Ba                2.889e-08   2.888e-08
	C                 4.098e-03   4.098e-03
	Ca                1.449e-02   1.449e-02
	Cl                1.400e-03   1.400e-03
	Mg                5.508e-04   5.508e-04
	N                 1.559e-03   1.559e-03
	Na                1.000e-03   1.000e-03
	S                 1.294e-02   1.294e-02

----------------------------Description of solution----------------------------

                                       pH  =   7.312      Charge balance
                                       pe  =   9.720      Adjusted to redox equilibrium
      Specific Conductance (µS/cm,  25°C)  = 2695
                          Density (g/cm³)  =   0.99911
                               Volume (L)  =   1.00306
                        Viscosity (mPa s)  =   0.89932
                        Activity of water  =   0.999
                 Ionic strength (mol/kgw)  =   4.471e-02
                       Mass of water (kg)  =   1.000e+00
                 Total alkalinity (eq/kg)  =   3.794e-03
                       Total CO2 (mol/kg)  =   4.098e-03
                         Temperature (°C)  =  25.00
                           Pressure (atm)  =  1.18
                  Electrical balance (eq)  =   9.376e-11
 Percent error, 100*(Cat-|An|)/(Cat+|An|)  =   0.00
                               Iterations  =  36
                                  Total H  = 1.110148e+02
                                  Total O  = 5.556925e+01

----------------------------Distribution of species----------------------------

                                               Log       Log       Log    mole V
   Species          Molality    Activity  Molality  Activity     Gamma   cm³/mol

   OH-             2.537e-07   2.078e-07    -6.596    -6.682    -0.087     -3.89
   H+              5.674e-08   4.870e-08    -7.246    -7.312    -0.066      0.00
   H2O             5.551e+01   9.995e-01     1.744    -0.000     0.000     18.07
Ba            2.889e-08
   Ba+2            2.834e-08   1.465e-08    -7.548    -7.834    -0.286    -12.87
   BaHCO3+         5.271e-10   4.363e-10    -9.278    -9.360    -0.082     (0)  
   BaCO3           2.241e-11   2.265e-11   -10.649   -10.645     0.004    -10.70
   BaOH+           1.225e-14   1.019e-14   -13.912   -13.992    -0.080     (0)  
C(-4)         0.000e+00
   CH4             0.000e+00   0.000e+00  -115.339  -115.335     0.004     35.46
C(4)          4.098e-03
   HCO3-           3.718e-03   3.106e-03    -2.430    -2.508    -0.078     25.01
   CO2             3.379e-04   3.402e-04    -3.471    -3.468     0.003     34.79
   CaCO3           2.691e-05   2.718e-05    -4.570    -4.566     0.004    -14.60
   MgHCO3+         7.519e-06   6.191e-06    -5.124    -5.208    -0.084      5.60
   CO3-2           6.161e-06   2.992e-06    -5.210    -5.524    -0.314     -3.80
   NaHCO3          1.207e-06   1.226e-06    -5.918    -5.911     0.007     17.66
   MgCO3           4.813e-07   4.863e-07    -6.318    -6.313     0.004    -17.09
   (CO2)2          1.869e-09   1.881e-09    -8.729    -8.726     0.003     68.75
   CaHCO3+         1.755e-09   1.473e-09    -8.756    -8.832    -0.076      9.79
   BaHCO3+         5.271e-10   4.363e-10    -9.278    -9.360    -0.082     (0)  
   BaCO3           2.241e-11   2.265e-11   -10.649   -10.645     0.004    -10.70
Ca            1.449e-02
   Ca+2            1.112e-02   5.409e-03    -1.954    -2.267    -0.313    -17.65
   CaSO4           3.347e-03   3.362e-03    -2.475    -2.473     0.002      7.22
   CaCO3           2.691e-05   2.718e-05    -4.570    -4.566     0.004    -14.60
   CaOH+           2.226e-08   1.842e-08    -7.652    -7.735    -0.082     (0)  
   CaHCO3+         1.755e-09   1.473e-09    -8.756    -8.832    -0.076      9.79
   CaHSO4+         1.658e-09   1.372e-09    -8.780    -8.863    -0.082     (0)  
Cl            1.400e-03
   Cl-             1.400e-03   1.150e-03    -2.854    -2.939    -0.085     18.24
   HCl             1.847e-11   1.929e-11   -10.734   -10.715     0.019     20.36
H(0)          1.208e-37
   H2              6.039e-38   6.104e-38   -37.219   -37.214     0.005     14.99
Mg            5.508e-04
   Mg+2            3.424e-04   1.704e-04    -3.465    -3.769    -0.303    -21.34
   MgSO4           1.947e-04   1.988e-04    -3.711    -3.702     0.009     -0.40
   MgHCO3+         7.519e-06   6.191e-06    -5.124    -5.208    -0.084      5.60
   Mg(SO4)2-2      5.663e-06   2.917e-06    -5.247    -5.535    -0.288     41.19
   MgCO3           4.813e-07   4.863e-07    -6.318    -6.313     0.004    -17.09
   MgOH+           1.506e-08   1.269e-08    -7.822    -7.896    -0.074     (0)  
N(-3)         0.000e+00
   NH4+            0.000e+00   0.000e+00   -44.332   -44.424    -0.092     18.06
   NH4SO4-         0.000e+00   0.000e+00   -45.346   -45.422    -0.076     34.76
   NH3             0.000e+00   0.000e+00   -46.360   -46.356     0.004     24.42
N(0)          1.559e-03
   N2              7.793e-04   7.874e-04    -3.108    -3.104     0.004     29.29
N(3)          9.461e-19
   NO2-            9.461e-19   7.704e-19   -18.024   -18.113    -0.089     25.14
N(5)          2.952e-13
   NO3-            2.952e-13   2.403e-13   -12.530   -12.619    -0.089     29.66
Na            1.000e-03
   Na+             9.610e-04   7.987e-04    -3.017    -3.098    -0.080     -1.23
   NaSO4-          3.776e-05   3.127e-05    -4.423    -4.505    -0.082     17.67
   NaHCO3          1.207e-06   1.226e-06    -5.918    -5.911     0.007     17.66
   Na2SO4          1.206e-11   1.217e-11   -10.919   -10.915     0.004     47.96
O(0)          2.303e-18
   O2              1.151e-18   1.163e-18   -17.939   -17.934     0.004     30.40
S(-2)         0.000e+00
   HS-             0.000e+00   0.000e+00  -112.183  -112.270    -0.087     20.77
   H2S             0.000e+00   0.000e+00  -112.645  -112.641     0.004     36.27
   S-2             0.000e+00   0.000e+00  -117.555  -117.876    -0.320     (0)  
   (H2S)2          0.000e+00   0.000e+00  -226.565  -226.560     0.004     30.10
S(6)          1.294e-02
   SO4-2           9.353e-03   4.456e-03    -2.029    -2.351    -0.322     14.91
   CaSO4           3.347e-03   3.362e-03    -2.475    -2.473     0.002      7.22
   MgSO4           1.947e-04   1.988e-04    -3.711    -3.702     0.009     -0.40
   NaSO4-          3.776e-05   3.127e-05    -4.423    -4.505    -0.082     17.67
   Mg(SO4)2-2      5.663e-06   2.917e-06    -5.247    -5.535    -0.288     41.19
   HSO4-           2.549e-08   2.109e-08    -7.594    -7.676    -0.082     40.44
   CaHSO4+         1.658e-09   1.372e-09    -8.780    -8.863    -0.082     (0)  
   Na2SO4          1.206e-11   1.217e-11   -10.919   -10.915     0.004     47.96
   NH4SO4-         0.000e+00   0.000e+00   -45.346   -45.422    -0.076     34.76

------------------------------Saturation indices-------------------------------

  Phase               SI** log IAP   log K(298 K,   1 atm)

  Anhydrite        -0.30     -4.62   -4.31  CaSO4
  Aragonite         0.54     -7.79   -8.34  CaCO3
  Barite           -0.30    -10.19   -9.89  BaSO4
  Calcite           0.66     -7.79   -8.45  CaCO3
  CH4(g)         -112.53   -115.33   -2.80  CH4
  CO2(g)           -2.00     -3.47   -1.47  CO2	 Pressure   0.0 atm, phi 1.000
  Dolomite         -0.00    -17.08  -17.08  CaMg(CO3)2
  Epsomite         -4.38     -6.12   -1.74  MgSO4:7H2O
  Gypsum           -0.07     -4.62   -4.55  CaSO4:2H2O
  H2(g)           -34.11    -37.21   -3.10  H2
  H2O(g)           -1.50     -0.00    1.50  H2O
  H2S(g)         -111.65   -119.58   -7.94  H2S
  Halite           -7.61     -6.04    1.57  NaCl
  Hexahydrite      -4.55     -6.12   -1.57  MgSO4:6H2O
  Kieserite        -4.96     -6.12   -1.16  MgSO4:H2O
  Mirabilite       -7.84     -8.55   -0.71  Na2SO4:10H2O
  N2(g)             0.07     -3.10   -3.18  N2	 Pressure   1.2 atm, phi 0.999
  NH3(g)          -48.15    -46.36    1.80  NH3
  O2(g)           -15.04    -17.93   -2.89  O2
  Sulfur          -83.46    -78.58    4.88  S
  Thenardite       -9.20     -8.55    0.65  Na2SO4
  Witherite        -4.80    -13.36   -8.56  BaCO3

**For a gas, SI = log10(fugacity). Fugacity = pressure * phi / 1 atm.
  For ideal gases, phi = 1.

------------------
End of simulation.
------------------

-------------------------------------
Reading input data for simulation 15.
-------------------------------------

