WARNING: Database file from DATABASE keyword is used; command line argument ignored.
   Input file: N2_ideal
  Output file: N2_ideal.out
Database file: ../database/phreeqc.dat

------------------
Reading data base.
------------------

	SOLUTION_MASTER_SPECIES
	SOLUTION_SPECIES
	PHASES
	GAS_BINARY_PARAMETERS
	EXCHANGE_MASTER_SPECIES
	EXCHANGE_SPECIES
	SURFACE_MASTER_SPECIES
	SURFACE_SPECIES
	MEAN_GAMMAS
	RATES
	END
------------------------------------
Reading input data for simulation 1.
------------------------------------

	DATABASE ../database/phreeqc.dat
	SELECTED_OUTPUT 101
	    file                 N2_ideal_101.sel
	USER_PUNCH 101
	    headings Mu SC
	    start
	10 PUNCH STR_F$(MU, 20, 12)
	20 PUNCH STR_F$(SC, 20, 10)
	    end
	PHASES
	N2(g)
	N2 = N2
	log_k		 -3.1864
	analytical_expression -58.453 1.81800E-03  3199  17.909 -27460
	t_c 150
	 p_c 3000 # these parameters give near ideal behavior
	SOLUTION 1
	 temp 150 # the ideal one (below) does not converge with temp 200
	INCREMENTAL_REACTIONS
	GAS_PHASE 1
	 fixed_volume
	 N2(g) 0
	REACTION 1
	 N2 1
	 27 in 20
	 USER_GRAPH
	 -headings Vm N2-ideal/critical
	 -axis_titles "Gas Molar Volume / (L/mole)" "Gas Pressure / atm"
	 10 graph_x gas_vm
	 20 graph_y gas_p
	END
-------------------------------------------
Beginning of initial solution calculations.
-------------------------------------------

Initial solution 1.	

-----------------------------Solution composition------------------------------

	Elements           Molality       Moles

	Pure water     

----------------------------Description of solution----------------------------

                                       pH  =   7.000    
                                       pe  =   4.000    
      Specific Conductance (µS/cm, 150°C)  = 12
                          Density (g/cm³)  =   0.91701
                               Volume (L)  =   1.09050
                        Viscosity (mPa s)  =   0.18262
                        Activity of water  =   1.000
                 Ionic strength (mol/kgw)  =   1.190e-05
                       Mass of water (kg)  =   1.000e+00
                 Total alkalinity (eq/kg)  =   2.360e-05
                         Temperature (°C)  = 150.00
                  Electrical balance (eq)  =  -2.360e-05
 Percent error, 100*(Cat-|An|)/(Cat+|An|)  = -99.16
                               Iterations  =   3
                                  Total H  = 1.110125e+02
                                  Total O  = 5.550624e+01

----------------------------Distribution of species----------------------------

                                               Log       Log       Log    mole V
   Species          Molality    Activity  Molality  Activity     Gamma   cm³/mol

   OH-             2.370e-05   2.357e-05    -4.625    -4.628    -0.002    -12.09
   H+              1.005e-07   1.000e-07    -6.998    -7.000    -0.002      0.00
   H2O             5.551e+01   1.000e+00     1.744    -0.000     0.000     19.65
H(0)          5.891e-26
   H2              2.945e-26   2.945e-26   -25.531   -25.531     0.000     20.32
O(0)          3.298e-15
   O2              1.649e-15   1.649e-15   -14.783   -14.783     0.000     35.93

------------------------------Saturation indices-------------------------------

  Phase               SI** log IAP   log K(423 K,   1 atm)

  H2(g)           -22.58    -25.53   -2.95  H2
  H2O(g)            0.66     -0.00   -0.66  H2O
  O2(g)           -11.74    -14.78   -3.04  O2

**For a gas, SI = log10(fugacity). Fugacity = pressure * phi / 1 atm.
  For ideal gases, phi = 1.

-----------------------------------------
Beginning of batch-reaction calculations.
-----------------------------------------

Reaction step 1.

Using solution 1.	
Using gas phase 1.	
Using reaction 1.	

Reaction 1.	

	  1.350e+00 moles of the following reaction have been added:

	                 Relative
	Reactant            moles

	N2                   1.00000

	                 Relative
	Element             moles
	N                    2.00000

-----------------------------------Gas phase-----------------------------------

Total pressure: 45.99      atmospheres          (Peng-Robinson calculation)
    Gas volume:   1.00e+00 liters
  Molar volume:   7.55e-01 liters/mole
   P * Vm / RT:  0.99993  (Compressibility Factor Z) 

                                                        Moles in gas
                                            ----------------------------------
Component         log P           P    phi     Initial       Final       Delta

N2(g)              1.66   4.599e+01  1.000   0.000e+00   1.324e+00   1.324e+00

-----------------------------Solution composition------------------------------

	Elements           Molality       Moles

	N                 5.104e-02   5.104e-02

----------------------------Description of solution----------------------------

                                       pH  =   6.982      Charge balance
                                       pe  =   2.733      Adjusted to redox equilibrium
      Specific Conductance (µS/cm, 150°C)  = 12
                          Density (g/cm³)  =   0.91704
                               Volume (L)  =   1.09125
                        Viscosity (mPa s)  =   0.18262
                        Activity of water  =   1.000
                 Ionic strength (mol/kgw)  =   1.190e-05
                       Mass of water (kg)  =   1.000e+00
                 Total alkalinity (eq/kg)  =   2.360e-05
                         Temperature (°C)  = 150.00
                           Pressure (atm)  = 45.99
                  Electrical balance (eq)  =  -2.360e-05
 Percent error, 100*(Cat-|An|)/(Cat+|An|)  = -99.12
                               Iterations  =  38
                                  Total H  = 1.110125e+02
                                  Total O  = 5.550624e+01

----------------------------Distribution of species----------------------------

                                               Log       Log       Log    mole V
   Species          Molality    Activity  Molality  Activity     Gamma   cm³/mol

   OH-             2.371e-05   2.358e-05    -4.625    -4.628    -0.002    -12.18
   H+              1.047e-07   1.041e-07    -6.980    -6.982    -0.002      0.00
   H2O             5.551e+01   9.996e-01     1.744    -0.000     0.000     19.65
H(0)          2.129e-23
   H2              1.065e-23   1.065e-23   -22.973   -22.973     0.000     20.19
N(-3)         2.774e-28
   NH3             1.968e-28   1.969e-28   -27.706   -27.706     0.000     19.17
   NH4+            8.052e-29   8.009e-29   -28.094   -28.096    -0.002     11.91
N(0)          5.104e-02
   N2              2.552e-02   2.552e-02    -1.593    -1.593     0.000     29.29
N(3)          5.001e-16
   NO2-            5.001e-16   4.974e-16   -15.301   -15.303    -0.002     21.27
N(5)          1.096e-15
   NO3-            1.096e-15   1.090e-15   -14.960   -14.963    -0.002     31.87
O(0)          2.405e-20
   O2              1.202e-20   1.202e-20   -19.920   -19.920     0.000     35.72

------------------------------Saturation indices-------------------------------

  Phase               SI** log IAP   log K(423 K,  46 atm)

  H2(g)           -20.01    -22.97   -2.96  H2
  H2O(g)            0.67     -0.00   -0.67  H2O
  N2(g)             1.66     -1.59   -3.26  N2	 Pressure  46.0 atm, phi 1.000
  NH3(g)          -27.78    -27.71    0.08  NH3
  O2(g)           -16.86    -19.92   -3.06  O2

**For a gas, SI = log10(fugacity). Fugacity = pressure * phi / 1 atm.
  For ideal gases, phi = 1.

Reaction step 2.

Using solution 1.	
Using gas phase 1.	
Using reaction 1.	

Reaction 1.	

	  1.350e+00 moles of the following reaction have been added:

	                 Relative
	Reactant            moles

	N2                   1.00000

	                 Relative
	Element             moles
	N                    2.00000

-----------------------------------Gas phase-----------------------------------

Total pressure: 92.04      atmospheres          (Peng-Robinson calculation)
    Gas volume:   1.00e+00 liters
  Molar volume:   3.77e-01 liters/mole
   P * Vm / RT:  0.99987  (Compressibility Factor Z) 

                                                        Moles in gas
                                            ----------------------------------
Component         log P           P    phi     Initial       Final       Delta

N2(g)              1.96   9.204e+01  1.000   1.324e+00   2.651e+00   1.326e+00

-----------------------------Solution composition------------------------------

	Elements           Molality       Moles

	N                 9.826e-02   9.826e-02

----------------------------Description of solution----------------------------

                                       pH  =   6.964      Charge balance
                                       pe  =   2.606      Adjusted to redox equilibrium
      Specific Conductance (µS/cm, 150°C)  = 11
                          Density (g/cm³)  =   0.92202
                               Volume (L)  =   1.08607
                        Viscosity (mPa s)  =   0.18487
                        Activity of water  =   0.999
                 Ionic strength (mol/kgw)  =   1.191e-05
                       Mass of water (kg)  =   1.000e+00
                 Total alkalinity (eq/kg)  =   2.360e-05
                         Temperature (°C)  = 150.00
                           Pressure (atm)  = 92.04
                  Electrical balance (eq)  =  -2.360e-05
 Percent error, 100*(Cat-|An|)/(Cat+|An|)  = -99.08
                               Iterations  =  23
                                  Total H  = 1.110125e+02
                                  Total O  = 5.550624e+01

----------------------------Distribution of species----------------------------

                                               Log       Log       Log    mole V
   Species          Molality    Activity  Molality  Activity     Gamma   cm³/mol

   OH-             2.371e-05   2.358e-05    -4.625    -4.627    -0.002    -12.28
   H+              1.091e-07   1.086e-07    -6.962    -6.964    -0.002      0.00
   H2O             5.551e+01   9.992e-01     1.744    -0.000     0.000     19.54
H(0)          4.049e-23
   H2              2.024e-23   2.024e-23   -22.694   -22.694     0.000     20.06
N(-3)         1.059e-27
   NH3             7.403e-28   7.403e-28   -27.131   -27.131     0.000     19.41
   NH4+            3.187e-28   3.170e-28   -27.497   -27.499    -0.002     12.19
N(0)          9.826e-02
   N2              4.913e-02   4.913e-02    -1.309    -1.309     0.000     29.29
N(3)          2.543e-16
   NO2-            2.543e-16   2.529e-16   -15.595   -15.597    -0.002     21.38
N(5)          2.888e-16
   NO3-            2.888e-16   2.872e-16   -15.539   -15.542    -0.002     31.79
O(0)          6.332e-21
   O2              3.166e-21   3.166e-21   -20.499   -20.499     0.000     35.51

------------------------------Saturation indices-------------------------------

  Phase               SI** log IAP   log K(423 K,  92 atm)

  H2(g)           -19.72    -22.69   -2.97  H2
  H2O(g)            0.68     -0.00   -0.68  H2O
  N2(g)             1.96     -1.31   -3.27  N2	 Pressure  92.0 atm, phi 1.000
  NH3(g)          -27.20    -27.13    0.07  NH3
  O2(g)           -17.42    -20.50   -3.08  O2

**For a gas, SI = log10(fugacity). Fugacity = pressure * phi / 1 atm.
  For ideal gases, phi = 1.

Reaction step 3.

Using solution 1.	
Using gas phase 1.	
Using reaction 1.	

Reaction 1.	

	  1.350e+00 moles of the following reaction have been added:

	                 Relative
	Reactant            moles

	N2                   1.00000

	                 Relative
	Element             moles
	N                    2.00000

-----------------------------------Gas phase-----------------------------------

Total pressure: 138.14      atmospheres          (Peng-Robinson calculation)
    Gas volume:   1.00e+00 liters
  Molar volume:   2.51e-01 liters/mole
   P * Vm / RT:  0.99981  (Compressibility Factor Z) 

                                                        Moles in gas
                                            ----------------------------------
Component         log P           P    phi     Initial       Final       Delta

N2(g)              2.14   1.381e+02  1.000   2.651e+00   3.979e+00   1.328e+00

-----------------------------Solution composition------------------------------

	Elements           Molality       Moles

	N                 1.418e-01   1.418e-01

----------------------------Description of solution----------------------------

                                       pH  =   6.946      Charge balance
                                       pe  =   2.546      Adjusted to redox equilibrium
      Specific Conductance (µS/cm, 150°C)  = 11
                          Density (g/cm³)  =   0.92458
                               Volume (L)  =   1.08372
                        Viscosity (mPa s)  =   0.18604
                        Activity of water  =   0.999
                 Ionic strength (mol/kgw)  =   1.191e-05
                       Mass of water (kg)  =   1.000e+00
                 Total alkalinity (eq/kg)  =   2.360e-05
                         Temperature (°C)  = 150.00
                           Pressure (atm)  = 138.14
                  Electrical balance (eq)  =  -2.360e-05
 Percent error, 100*(Cat-|An|)/(Cat+|An|)  = -99.04
                               Iterations  =  21
                                  Total H  = 1.110125e+02
                                  Total O  = 5.550624e+01

----------------------------Distribution of species----------------------------

                                               Log       Log       Log    mole V
   Species          Molality    Activity  Molality  Activity     Gamma   cm³/mol

   OH-             2.371e-05   2.359e-05    -4.625    -4.627    -0.002    -12.37
   H+              1.138e-07   1.132e-07    -6.944    -6.946    -0.002      0.00
   H2O             5.551e+01   9.988e-01     1.744    -0.001     0.000     19.49
H(0)          5.655e-23
   H2              2.827e-23   2.827e-23   -22.549   -22.549     0.000     19.94
N(-3)         2.203e-27
   NH3             1.516e-27   1.516e-27   -26.819   -26.819     0.000     19.65
   NH4+            6.869e-28   6.832e-28   -27.163   -27.165    -0.002     12.45
N(0)          1.418e-01
   N2              7.092e-02   7.092e-02    -1.149    -1.149     0.000     29.29
N(3)          1.779e-16
   NO2-            1.779e-16   1.770e-16   -15.750   -15.752    -0.002     21.48
N(5)          1.427e-16
   NO3-            1.427e-16   1.419e-16   -15.846   -15.848    -0.002     31.72
O(0)          3.094e-21
   O2              1.547e-21   1.547e-21   -20.810   -20.810     0.000     35.31

------------------------------Saturation indices-------------------------------

  Phase               SI** log IAP   log K(423 K, 138 atm)

  H2(g)           -19.56    -22.55   -2.99  H2
  H2O(g)            0.69     -0.00   -0.69  H2O
  N2(g)             2.14     -1.15   -3.29  N2	 Pressure 138.1 atm, phi 1.000
  NH3(g)          -26.87    -26.82    0.06  NH3
  O2(g)           -17.71    -20.81   -3.10  O2

**For a gas, SI = log10(fugacity). Fugacity = pressure * phi / 1 atm.
  For ideal gases, phi = 1.

Reaction step 4.

Using solution 1.	
Using gas phase 1.	
Using reaction 1.	

Reaction 1.	

	  1.350e+00 moles of the following reaction have been added:

	                 Relative
	Reactant            moles

	N2                   1.00000

	                 Relative
	Element             moles
	N                    2.00000

-----------------------------------Gas phase-----------------------------------

Total pressure: 184.30      atmospheres          (Peng-Robinson calculation)
    Gas volume:   1.00e+00 liters
  Molar volume:   1.88e-01 liters/mole
   P * Vm / RT:  0.99974  (Compressibility Factor Z) 

                                                        Moles in gas
                                            ----------------------------------
Component         log P           P    phi     Initial       Final       Delta

N2(g)              2.27   1.843e+02  1.000   3.979e+00   5.309e+00   1.330e+00

-----------------------------Solution composition------------------------------

	Elements           Molality       Moles

	N                 1.820e-01   1.820e-01

----------------------------Description of solution----------------------------

                                       pH  =   6.928      Charge balance
                                       pe  =   2.684      Adjusted to redox equilibrium
      Specific Conductance (µS/cm, 150°C)  = 11
                          Density (g/cm³)  =   0.92710
                               Volume (L)  =   1.08138
                        Viscosity (mPa s)  =   0.18720
                        Activity of water  =   0.998
                 Ionic strength (mol/kgw)  =   1.192e-05
                       Mass of water (kg)  =   1.000e+00
                 Total alkalinity (eq/kg)  =   2.360e-05
                         Temperature (°C)  = 150.00
                           Pressure (atm)  = 184.30
                  Electrical balance (eq)  =  -2.360e-05
 Percent error, 100*(Cat-|An|)/(Cat+|An|)  = -99.00
                               Iterations  =  25
                                  Total H  = 1.110125e+02
                                  Total O  = 5.550624e+01

----------------------------Distribution of species----------------------------

                                               Log       Log       Log    mole V
   Species          Molality    Activity  Molality  Activity     Gamma   cm³/mol

   OH-             2.372e-05   2.359e-05    -4.625    -4.627    -0.002    -12.46
   H+              1.187e-07   1.181e-07    -6.926    -6.928    -0.002      0.00
   H2O             5.551e+01   9.985e-01     1.744    -0.001     0.000     19.43
H(0)          3.167e-23
   H2              1.584e-23   1.584e-23   -22.800   -22.800     0.000     19.82
N(-3)         1.097e-27
   NH3             7.425e-28   7.425e-28   -27.129   -27.129     0.000     19.87
   NH4+            3.542e-28   3.523e-28   -27.451   -27.453    -0.002     12.71
N(0)          1.820e-01
   N2              9.100e-02   9.100e-02    -1.041    -1.041     0.000     29.29
N(3)          4.620e-16
   NO2-            4.620e-16   4.595e-16   -15.335   -15.338    -0.002     21.58
N(5)          6.526e-16
   NO3-            6.526e-16   6.491e-16   -15.185   -15.188    -0.002     31.65
O(0)          9.408e-21
   O2              4.704e-21   4.704e-21   -20.328   -20.328     0.000     35.12

------------------------------Saturation indices-------------------------------

  Phase               SI** log IAP   log K(423 K, 184 atm)

  H2(g)           -19.80    -22.80   -3.00  H2
  H2O(g)            0.70     -0.00   -0.70  H2O
  N2(g)             2.27     -1.04   -3.31  N2	 Pressure 184.3 atm, phi 1.000
  NH3(g)          -27.17    -27.13    0.04  NH3
  O2(g)           -17.21    -20.33   -3.12  O2

**For a gas, SI = log10(fugacity). Fugacity = pressure * phi / 1 atm.
  For ideal gases, phi = 1.

Reaction step 5.

Using solution 1.	
Using gas phase 1.	
Using reaction 1.	

Reaction 1.	

	  1.350e+00 moles of the following reaction have been added:

	                 Relative
	Reactant            moles

	N2                   1.00000

	                 Relative
	Element             moles
	N                    2.00000

-----------------------------------Gas phase-----------------------------------

Total pressure: 230.51      atmospheres          (Peng-Robinson calculation)
    Gas volume:   1.00e+00 liters
  Molar volume:   1.51e-01 liters/mole
   P * Vm / RT:  0.99968  (Compressibility Factor Z) 

                                                        Moles in gas
                                            ----------------------------------
Component         log P           P    phi     Initial       Final       Delta

N2(g)              2.36   2.305e+02  1.000   5.309e+00   6.641e+00   1.332e+00

-----------------------------Solution composition------------------------------

	Elements           Molality       Moles

	N                 2.189e-01   2.189e-01

----------------------------Description of solution----------------------------

                                       pH  =   6.910      Charge balance
                                       pe  =   2.510      Adjusted to redox equilibrium
      Specific Conductance (µS/cm, 150°C)  = 11
                          Density (g/cm³)  =   0.92957
                               Volume (L)  =   1.07906
                        Viscosity (mPa s)  =   0.18835
                        Activity of water  =   0.998
                 Ionic strength (mol/kgw)  =   1.192e-05
                       Mass of water (kg)  =   1.000e+00
                 Total alkalinity (eq/kg)  =   2.360e-05
                         Temperature (°C)  = 150.00
                           Pressure (atm)  = 230.51
                  Electrical balance (eq)  =  -2.360e-05
 Percent error, 100*(Cat-|An|)/(Cat+|An|)  = -98.96
                               Iterations  =  25
                                  Total H  = 1.110125e+02
                                  Total O  = 5.550624e+01

----------------------------Distribution of species----------------------------

                                               Log       Log       Log    mole V
   Species          Molality    Activity  Molality  Activity     Gamma   cm³/mol

   OH-             2.372e-05   2.360e-05    -4.625    -4.627    -0.002    -12.55
   H+              1.238e-07   1.231e-07    -6.907    -6.910    -0.002      0.00
   H2O             5.551e+01   9.981e-01     1.744    -0.001     0.000     19.38
H(0)          7.497e-23
   H2              3.749e-23   3.749e-23   -22.426   -22.426     0.000     19.70
N(-3)         4.590e-27
   NH3             3.056e-27   3.056e-27   -26.515   -26.515     0.000     20.08
   NH4+            1.535e-27   1.526e-27   -26.814   -26.816    -0.002     12.95
N(0)          2.189e-01
   N2              1.095e-01   1.095e-01    -0.961    -0.961     0.000     29.29
N(3)          1.337e-16
   NO2-            1.337e-16   1.330e-16   -15.874   -15.876    -0.002     21.68
N(5)          7.876e-17
   NO3-            7.876e-17   7.834e-17   -16.104   -16.106    -0.002     31.58
O(0)          1.603e-21
   O2              8.017e-22   8.017e-22   -21.096   -21.096     0.000     34.93

------------------------------Saturation indices-------------------------------

  Phase               SI** log IAP   log K(423 K, 231 atm)

  H2(g)           -19.42    -22.43   -3.01  H2
  H2O(g)            0.71     -0.00   -0.71  H2O
  N2(g)             2.36     -0.96   -3.32  N2	 Pressure 230.5 atm, phi 1.000
  NH3(g)          -26.55    -26.51    0.03  NH3
  O2(g)           -17.96    -21.10   -3.14  O2

**For a gas, SI = log10(fugacity). Fugacity = pressure * phi / 1 atm.
  For ideal gases, phi = 1.

Reaction step 6.

Using solution 1.	
Using gas phase 1.	
Using reaction 1.	

Reaction 1.	

	  1.350e+00 moles of the following reaction have been added:

	                 Relative
	Reactant            moles

	N2                   1.00000

	                 Relative
	Element             moles
	N                    2.00000

-----------------------------------Gas phase-----------------------------------

Total pressure: 276.77      atmospheres          (Peng-Robinson calculation)
    Gas volume:   1.00e+00 liters
  Molar volume:   1.25e-01 liters/mole
   P * Vm / RT:  0.99962  (Compressibility Factor Z) 

                                                        Moles in gas
                                            ----------------------------------
Component         log P           P    phi     Initial       Final       Delta

N2(g)              2.44   2.768e+02  1.000   6.641e+00   7.974e+00   1.333e+00

-----------------------------Solution composition------------------------------

	Elements           Molality       Moles

	N                 2.528e-01   2.528e-01

----------------------------Description of solution----------------------------

                                       pH  =   6.891      Charge balance
                                       pe  =  -1.384      Adjusted to redox equilibrium
      Specific Conductance (µS/cm, 150°C)  = 11
                          Density (g/cm³)  =   0.93200
                               Volume (L)  =   1.07676
                        Viscosity (mPa s)  =   0.18950
                        Activity of water  =   0.998
                 Ionic strength (mol/kgw)  =   1.193e-05
                       Mass of water (kg)  =   1.000e+00
                 Total alkalinity (eq/kg)  =   2.360e-05
                         Temperature (°C)  = 150.00
                           Pressure (atm)  = 276.77
                  Electrical balance (eq)  =  -2.360e-05
 Percent error, 100*(Cat-|An|)/(Cat+|An|)  = -98.92
                               Iterations  =  30
                                  Total H  = 1.110125e+02
                                  Total O  = 5.550624e+01

----------------------------Distribution of species----------------------------

                                               Log       Log       Log    mole V
   Species          Molality    Activity  Molality  Activity     Gamma   cm³/mol

   OH-             2.373e-05   2.360e-05    -4.625    -4.627    -0.002    -12.64
   H+              1.291e-07   1.285e-07    -6.889    -6.891    -0.002      0.00
   H2O             5.551e+01   9.979e-01     1.744    -0.001     0.000     19.33
H(0)          4.873e-15
   H2              2.437e-15   2.437e-15   -14.613   -14.613     0.000     19.59
N(-3)         2.709e-15
   NH3             1.772e-15   1.772e-15   -14.752   -14.752     0.000     20.29
   NH4+            9.368e-16   9.318e-16   -15.028   -15.031    -0.002     13.19
N(0)          2.528e-01
   N2              1.264e-01   1.264e-01    -0.898    -0.898     0.000     29.29
N(3)          2.633e-28
   NO2-            2.633e-28   2.619e-28   -27.580   -27.582    -0.002     21.77
N(5)          2.358e-36
   NO3-            2.358e-36   2.345e-36   -35.627   -35.630    -0.002     31.51
O(0)          3.626e-37
   O2              1.813e-37   1.813e-37   -36.742   -36.742     0.000     34.75

------------------------------Saturation indices-------------------------------

  Phase               SI** log IAP   log K(423 K, 277 atm)

  H2(g)           -11.59    -14.61   -3.02  H2
  H2O(g)            0.72     -0.00   -0.73  H2O
  N2(g)             2.44     -0.90   -3.34  N2	 Pressure 276.8 atm, phi 1.000
  NH3(g)          -14.77    -14.75    0.02  NH3
  O2(g)           -33.58    -36.74   -3.16  O2

**For a gas, SI = log10(fugacity). Fugacity = pressure * phi / 1 atm.
  For ideal gases, phi = 1.

Reaction step 7.

Using solution 1.	
Using gas phase 1.	
Using reaction 1.	

Reaction 1.	

	  1.350e+00 moles of the following reaction have been added:

	                 Relative
	Reactant            moles

	N2                   1.00000

	                 Relative
	Element             moles
	N                    2.00000

-----------------------------------Gas phase-----------------------------------

Total pressure: 323.07      atmospheres          (Peng-Robinson calculation)
    Gas volume:   1.00e+00 liters
  Molar volume:   1.07e-01 liters/mole
   P * Vm / RT:  0.99956  (Compressibility Factor Z) 

                                                        Moles in gas
                                            ----------------------------------
Component         log P           P    phi     Initial       Final       Delta

N2(g)              2.51   3.231e+02  1.000   7.974e+00   9.308e+00   1.335e+00

-----------------------------Solution composition------------------------------

	Elements           Molality       Moles

	N                 2.837e-01   2.837e-01

----------------------------Description of solution----------------------------

                                       pH  =   6.873      Charge balance
                                       pe  =   2.653      Adjusted to redox equilibrium
      Specific Conductance (µS/cm, 150°C)  = 11
                          Density (g/cm³)  =   0.93439
                               Volume (L)  =   1.07447
                        Viscosity (mPa s)  =   0.19064
                        Activity of water  =   0.998
                 Ionic strength (mol/kgw)  =   1.194e-05
                       Mass of water (kg)  =   1.000e+00
                 Total alkalinity (eq/kg)  =   2.360e-05
                         Temperature (°C)  = 150.00
                           Pressure (atm)  = 323.07
                  Electrical balance (eq)  =  -2.360e-05
 Percent error, 100*(Cat-|An|)/(Cat+|An|)  = -98.87
                               Iterations  =  31
                                  Total H  = 1.110125e+02
                                  Total O  = 5.550624e+01

----------------------------Distribution of species----------------------------

                                               Log       Log       Log    mole V
   Species          Molality    Activity  Molality  Activity     Gamma   cm³/mol

   OH-             2.374e-05   2.361e-05    -4.625    -4.627    -0.002    -12.73
   H+              1.347e-07   1.340e-07    -6.871    -6.873    -0.002      0.00
   H2O             5.551e+01   9.976e-01     1.744    -0.001     0.000     19.28
H(0)          4.360e-23
   H2              2.180e-23   2.180e-23   -22.662   -22.662     0.000     19.48
N(-3)         2.544e-27
   NH3             1.634e-27   1.634e-27   -26.787   -26.787     0.000     20.48
   NH4+            9.099e-28   9.051e-28   -27.041   -27.043    -0.002     13.42
N(0)          2.837e-01
   N2              1.419e-01   1.419e-01    -0.848    -0.848     0.000     29.29
N(3)          3.166e-16
   NO2-            3.166e-16   3.149e-16   -15.500   -15.502    -0.002     21.86
N(5)          3.132e-16
   NO3-            3.132e-16   3.115e-16   -15.504   -15.506    -0.002     31.44
O(0)          4.331e-21
   O2              2.165e-21   2.165e-21   -20.664   -20.664     0.000     34.57

------------------------------Saturation indices-------------------------------

  Phase               SI** log IAP   log K(423 K, 323 atm)

  H2(g)           -19.63    -22.66   -3.03  H2
  H2O(g)            0.74     -0.00   -0.74  H2O
  N2(g)             2.51     -0.85   -3.36  N2	 Pressure 323.1 atm, phi 1.000
  NH3(g)          -26.79    -26.79    0.01  NH3
  O2(g)           -17.49    -20.66   -3.18  O2

**For a gas, SI = log10(fugacity). Fugacity = pressure * phi / 1 atm.
  For ideal gases, phi = 1.

Reaction step 8.

Using solution 1.	
Using gas phase 1.	
Using reaction 1.	

Reaction 1.	

	  1.350e+00 moles of the following reaction have been added:

	                 Relative
	Reactant            moles

	N2                   1.00000

	                 Relative
	Element             moles
	N                    2.00000

-----------------------------------Gas phase-----------------------------------

Total pressure: 369.41      atmospheres          (Peng-Robinson calculation)
    Gas volume:   1.00e+00 liters
  Molar volume:   9.39e-02 liters/mole
   P * Vm / RT:  0.99950  (Compressibility Factor Z) 

                                                        Moles in gas
                                            ----------------------------------
Component         log P           P    phi     Initial       Final       Delta

N2(g)              2.57   3.694e+02  0.999   9.308e+00   1.064e+01   1.336e+00

-----------------------------Solution composition------------------------------

	Elements           Molality       Moles

	N                 3.120e-01   3.120e-01

----------------------------Description of solution----------------------------

                                       pH  =   6.854      Charge balance
                                       pe  =   2.831      Adjusted to redox equilibrium
      Specific Conductance (µS/cm, 150°C)  = 11
                          Density (g/cm³)  =   0.93674
                               Volume (L)  =   1.07220
                        Viscosity (mPa s)  =   0.19176
                        Activity of water  =   0.997
                 Ionic strength (mol/kgw)  =   1.194e-05
                       Mass of water (kg)  =   1.000e+00
                 Total alkalinity (eq/kg)  =   2.360e-05
                         Temperature (°C)  = 150.00
                           Pressure (atm)  = 369.41
                  Electrical balance (eq)  =  -2.360e-05
 Percent error, 100*(Cat-|An|)/(Cat+|An|)  = -98.82
                               Iterations  =  28
                                  Total H  = 1.110125e+02
                                  Total O  = 5.550624e+01

----------------------------Distribution of species----------------------------

                                               Log       Log       Log    mole V
   Species          Molality    Activity  Molality  Activity     Gamma   cm³/mol

   OH-             2.374e-05   2.362e-05    -4.624    -4.627    -0.002    -12.82
   H+              1.406e-07   1.399e-07    -6.852    -6.854    -0.002      0.00
   H2O             5.551e+01   9.973e-01     1.744    -0.001     0.000     19.23
H(0)          2.039e-23
   H2              1.019e-23   1.019e-23   -22.992   -22.992     0.000     19.38
N(-3)         8.935e-28
   NH3             5.633e-28   5.633e-28   -27.249   -27.249     0.000     20.67
   NH4+            3.303e-28   3.285e-28   -27.481   -27.483    -0.002     13.64
N(0)          3.120e-01
   N2              1.560e-01   1.560e-01    -0.807    -0.807     0.000     29.29
N(3)          9.968e-16
   NO2-            9.968e-16   9.915e-16   -15.001   -15.004    -0.002     21.95
N(5)          2.086e-15
   NO3-            2.086e-15   2.075e-15   -14.681   -14.683    -0.002     31.38
O(0)          1.895e-20
   O2              9.475e-21   9.475e-21   -20.023   -20.023     0.000     34.41

------------------------------Saturation indices-------------------------------

  Phase               SI** log IAP   log K(423 K, 369 atm)

  H2(g)           -19.95    -22.99   -3.04  H2
  H2O(g)            0.75     -0.00   -0.75  H2O
  N2(g)             2.57     -0.81   -3.37  N2	 Pressure 369.4 atm, phi 0.999
  NH3(g)          -27.24    -27.25   -0.01  NH3
  O2(g)           -16.83    -20.02   -3.20  O2

**For a gas, SI = log10(fugacity). Fugacity = pressure * phi / 1 atm.
  For ideal gases, phi = 1.

Reaction step 9.

Using solution 1.	
Using gas phase 1.	
Using reaction 1.	

Reaction 1.	

	  1.350e+00 moles of the following reaction have been added:

	                 Relative
	Reactant            moles

	N2                   1.00000

	                 Relative
	Element             moles
	N                    2.00000

-----------------------------------Gas phase-----------------------------------

Total pressure: 415.80      atmospheres          (Peng-Robinson calculation)
    Gas volume:   1.00e+00 liters
  Molar volume:   8.35e-02 liters/mole
   P * Vm / RT:  0.99945  (Compressibility Factor Z) 

                                                        Moles in gas
                                            ----------------------------------
Component         log P           P    phi     Initial       Final       Delta

N2(g)              2.62   4.158e+02  0.999   1.064e+01   1.198e+01   1.337e+00

-----------------------------Solution composition------------------------------

	Elements           Molality       Moles

	N                 3.377e-01   3.377e-01

----------------------------Description of solution----------------------------

                                       pH  =   6.836      Charge balance
                                       pe  =  -1.070      Adjusted to redox equilibrium
      Specific Conductance (µS/cm, 150°C)  = 11
                          Density (g/cm³)  =   0.93905
                               Volume (L)  =   1.06994
                        Viscosity (mPa s)  =   0.19289
                        Activity of water  =   0.997
                 Ionic strength (mol/kgw)  =   1.195e-05
                       Mass of water (kg)  =   1.000e+00
                 Total alkalinity (eq/kg)  =   2.360e-05
                         Temperature (°C)  = 150.00
                           Pressure (atm)  = 415.80
                  Electrical balance (eq)  =  -2.360e-05
 Percent error, 100*(Cat-|An|)/(Cat+|An|)  = -98.77
                               Iterations  =  36
                                  Total H  = 1.110125e+02
                                  Total O  = 5.550624e+01

----------------------------Distribution of species----------------------------

                                               Log       Log       Log    mole V
   Species          Molality    Activity  Molality  Activity     Gamma   cm³/mol

   OH-             2.375e-05   2.362e-05    -4.624    -4.627    -0.002    -12.90
   H+              1.467e-07   1.460e-07    -6.833    -6.836    -0.002      0.00
   H2O             5.551e+01   9.971e-01     1.744    -0.001     0.000     19.19
H(0)          1.377e-15
   H2              6.887e-16   6.887e-16   -15.162   -15.162     0.000     19.28
N(-3)         5.406e-16
   NH3             3.342e-16   3.342e-16   -15.476   -15.476     0.000     20.86
   NH4+            2.064e-16   2.053e-16   -15.685   -15.688    -0.002     13.85
N(0)          3.377e-01
   N2              1.688e-01   1.688e-01    -0.773    -0.773     0.000     29.29
N(3)          1.793e-27
   NO2-            1.793e-27   1.784e-27   -26.746   -26.749    -0.002     22.03
N(5)          5.495e-35
   NO3-            5.495e-35   5.466e-35   -34.260   -34.262    -0.002     31.32
O(0)          3.975e-36
   O2              1.987e-36   1.987e-36   -35.702   -35.702     0.000     34.24

------------------------------Saturation indices-------------------------------

  Phase               SI** log IAP   log K(423 K, 416 atm)

  H2(g)           -12.11    -15.16   -3.05  H2
  H2O(g)            0.76     -0.00   -0.76  H2O
  N2(g)             2.62     -0.77   -3.39  N2	 Pressure 415.8 atm, phi 0.999
  NH3(g)          -15.46    -15.48   -0.02  NH3
  O2(g)           -32.48    -35.70   -3.22  O2

**For a gas, SI = log10(fugacity). Fugacity = pressure * phi / 1 atm.
  For ideal gases, phi = 1.

Reaction step 10.

Using solution 1.	
Using gas phase 1.	
Using reaction 1.	

Reaction 1.	

	  1.350e+00 moles of the following reaction have been added:

	                 Relative
	Reactant            moles

	N2                   1.00000

	                 Relative
	Element             moles
	N                    2.00000

-----------------------------------Gas phase-----------------------------------

Total pressure: 462.22      atmospheres          (Peng-Robinson calculation)
    Gas volume:   1.00e+00 liters
  Molar volume:   7.51e-02 liters/mole
   P * Vm / RT:  0.99939  (Compressibility Factor Z) 

                                                        Moles in gas
                                            ----------------------------------
Component         log P           P    phi     Initial       Final       Delta

N2(g)              2.66   4.622e+02  0.999   1.198e+01   1.332e+01   1.338e+00

-----------------------------Solution composition------------------------------

	Elements           Molality       Moles

	N                 3.609e-01   3.609e-01

----------------------------Description of solution----------------------------

                                       pH  =   6.817      Charge balance
                                       pe  =   2.872      Adjusted to redox equilibrium
      Specific Conductance (µS/cm, 150°C)  = 11
                          Density (g/cm³)  =   0.94133
                               Volume (L)  =   1.06770
                        Viscosity (mPa s)  =   0.19400
                        Activity of water  =   0.997
                 Ionic strength (mol/kgw)  =   1.195e-05
                       Mass of water (kg)  =   1.000e+00
                 Total alkalinity (eq/kg)  =   2.360e-05
                         Temperature (°C)  = 150.00
                           Pressure (atm)  = 462.22
                  Electrical balance (eq)  =  -2.360e-05
 Percent error, 100*(Cat-|An|)/(Cat+|An|)  = -98.72
                               Iterations  =  31
                                  Total H  = 1.110125e+02
                                  Total O  = 5.550624e+01

----------------------------Distribution of species----------------------------

                                               Log       Log       Log    mole V
   Species          Molality    Activity  Molality  Activity     Gamma   cm³/mol

   OH-             2.375e-05   2.363e-05    -4.624    -4.627    -0.002    -12.99
   H+              1.532e-07   1.524e-07    -6.815    -6.817    -0.002      0.00
   H2O             5.551e+01   9.969e-01     1.744    -0.001     0.000     19.14
H(0)          1.912e-23
   H2              9.560e-24   9.560e-24   -23.020   -23.020     0.000     19.18
N(-3)         9.574e-28
   NH3             5.801e-28   5.801e-28   -27.237   -27.237     0.000     21.03
   NH4+            3.773e-28   3.754e-28   -27.423   -27.426    -0.002     14.05
N(0)          3.609e-01
   N2              1.805e-01   1.805e-01    -0.744    -0.744     0.000     29.29
N(3)          1.088e-15
   NO2-            1.088e-15   1.082e-15   -14.963   -14.966    -0.002     22.11
N(5)          2.377e-15
   NO3-            2.377e-15   2.365e-15   -14.624   -14.626    -0.002     31.25
O(0)          1.976e-20
   O2              9.880e-21   9.880e-21   -20.005   -20.005     0.000     34.08

------------------------------Saturation indices-------------------------------

  Phase               SI** log IAP   log K(423 K, 462 atm)

  H2(g)           -19.96    -23.02   -3.06  H2
  H2O(g)            0.77     -0.00   -0.77  H2O
  N2(g)             2.66     -0.74   -3.41  N2	 Pressure 462.2 atm, phi 0.999
  NH3(g)          -27.20    -27.24   -0.03  NH3
  O2(g)           -16.77    -20.01   -3.24  O2

**For a gas, SI = log10(fugacity). Fugacity = pressure * phi / 1 atm.
  For ideal gases, phi = 1.

Reaction step 11.

Using solution 1.	
Using gas phase 1.	
Using reaction 1.	

Reaction 1.	

	  1.350e+00 moles of the following reaction have been added:

	                 Relative
	Reactant            moles

	N2                   1.00000

	                 Relative
	Element             moles
	N                    2.00000

-----------------------------------Gas phase-----------------------------------

Total pressure: 508.68      atmospheres          (Peng-Robinson calculation)
    Gas volume:   1.00e+00 liters
  Molar volume:   6.82e-02 liters/mole
   P * Vm / RT:  0.99933  (Compressibility Factor Z) 

                                                        Moles in gas
                                            ----------------------------------
Component         log P           P    phi     Initial       Final       Delta

N2(g)              2.71   5.087e+02  0.999   1.332e+01   1.466e+01   1.340e+00

-----------------------------Solution composition------------------------------

	Elements           Molality       Moles

	N                 3.819e-01   3.819e-01

----------------------------Description of solution----------------------------

                                       pH  =   6.798      Charge balance
                                       pe  =   2.908      Adjusted to redox equilibrium
      Specific Conductance (µS/cm, 150°C)  = 11
                          Density (g/cm³)  =   0.94357
                               Volume (L)  =   1.06548
                        Viscosity (mPa s)  =   0.19511
                        Activity of water  =   0.997
                 Ionic strength (mol/kgw)  =   1.196e-05
                       Mass of water (kg)  =   1.000e+00
                 Total alkalinity (eq/kg)  =   2.360e-05
                         Temperature (°C)  = 150.00
                           Pressure (atm)  = 508.68
                  Electrical balance (eq)  =  -2.360e-05
 Percent error, 100*(Cat-|An|)/(Cat+|An|)  = -98.66
                               Iterations  =  32
                                  Total H  = 1.110125e+02
                                  Total O  = 5.550624e+01

----------------------------Distribution of species----------------------------

                                               Log       Log       Log    mole V
   Species          Molality    Activity  Molality  Activity     Gamma   cm³/mol

   OH-             2.376e-05   2.364e-05    -4.624    -4.626    -0.002    -13.07
   H+              1.599e-07   1.591e-07    -6.796    -6.798    -0.002      0.00
   H2O             5.551e+01   9.968e-01     1.744    -0.001     0.000     19.09
H(0)          1.719e-23
   H2              8.596e-24   8.596e-24   -23.066   -23.066     0.000     19.09
N(-3)         8.794e-28
   NH3             5.218e-28   5.218e-28   -27.282   -27.282     0.000     21.20
   NH4+            3.576e-28   3.557e-28   -27.447   -27.449    -0.002     14.25
N(0)          3.819e-01
   N2              1.910e-01   1.910e-01    -0.719    -0.719     0.000     29.29
N(3)          1.260e-15
   NO2-            1.260e-15   1.253e-15   -14.900   -14.902    -0.002     22.18
N(5)          3.032e-15
   NO3-            3.032e-15   3.016e-15   -14.518   -14.521    -0.002     31.19
O(0)          2.343e-20
   O2              1.171e-20   1.171e-20   -19.931   -19.931     0.000     33.93

------------------------------Saturation indices-------------------------------

  Phase               SI** log IAP   log K(423 K, 509 atm)

  H2(g)           -19.99    -23.07   -3.07  H2
  H2O(g)            0.78     -0.00   -0.78  H2O
  N2(g)             2.71     -0.72   -3.43  N2	 Pressure 508.7 atm, phi 0.999
  NH3(g)          -27.24    -27.28   -0.05  NH3
  O2(g)           -16.68    -19.93   -3.25  O2

**For a gas, SI = log10(fugacity). Fugacity = pressure * phi / 1 atm.
  For ideal gases, phi = 1.

Reaction step 12.

Using solution 1.	
Using gas phase 1.	
Using reaction 1.	

Reaction 1.	

	  1.350e+00 moles of the following reaction have been added:

	                 Relative
	Reactant            moles

	N2                   1.00000

	                 Relative
	Element             moles
	N                    2.00000

-----------------------------------Gas phase-----------------------------------

Total pressure: 555.16      atmospheres          (Peng-Robinson calculation)
    Gas volume:   1.00e+00 liters
  Molar volume:   6.25e-02 liters/mole
   P * Vm / RT:  0.99928  (Compressibility Factor Z) 

                                                        Moles in gas
                                            ----------------------------------
Component         log P           P    phi     Initial       Final       Delta

N2(g)              2.74   5.552e+02  0.999   1.466e+01   1.600e+01   1.341e+00

-----------------------------Solution composition------------------------------

	Elements           Molality       Moles

	N                 4.008e-01   4.008e-01

----------------------------Description of solution----------------------------

                                       pH  =   6.780      Charge balance
                                       pe  =   2.784      Adjusted to redox equilibrium
      Specific Conductance (µS/cm, 150°C)  = 11
                          Density (g/cm³)  =   0.94578
                               Volume (L)  =   1.06327
                        Viscosity (mPa s)  =   0.19622
                        Activity of water  =   0.997
                 Ionic strength (mol/kgw)  =   1.197e-05
                       Mass of water (kg)  =   1.000e+00
                 Total alkalinity (eq/kg)  =   2.360e-05
                         Temperature (°C)  = 150.00
                           Pressure (atm)  = 555.16
                  Electrical balance (eq)  =  -2.360e-05
 Percent error, 100*(Cat-|An|)/(Cat+|An|)  = -98.60
                               Iterations  =  32
                                  Total H  = 1.110125e+02
                                  Total O  = 5.550624e+01

----------------------------Distribution of species----------------------------

                                               Log       Log       Log    mole V
   Species          Molality    Activity  Molality  Activity     Gamma   cm³/mol

   OH-             2.377e-05   2.364e-05    -4.624    -4.626    -0.002    -13.16
   H+              1.670e-07   1.661e-07    -6.777    -6.780    -0.002      0.00
   H2O             5.551e+01   9.966e-01     1.744    -0.001     0.000     19.05
H(0)          3.244e-23
   H2              1.622e-23   1.622e-23   -22.790   -22.790     0.000     19.00
N(-3)         2.445e-27
   NH3             1.420e-27   1.420e-27   -26.848   -26.848     0.000     21.37
   NH4+            1.025e-27   1.020e-27   -26.989   -26.991    -0.002     14.43
N(0)          4.008e-01
   N2              2.004e-01   2.004e-01    -0.698    -0.698     0.000     29.29
N(3)          4.778e-16
   NO2-            4.778e-16   4.753e-16   -15.321   -15.323    -0.002     22.25
N(5)          6.037e-16
   NO3-            6.037e-16   6.006e-16   -15.219   -15.221    -0.002     31.14
O(0)          6.310e-21
   O2              3.155e-21   3.155e-21   -20.501   -20.501     0.000     33.78

------------------------------Saturation indices-------------------------------

  Phase               SI** log IAP   log K(423 K, 555 atm)

  H2(g)           -19.71    -22.79   -3.08  H2
  H2O(g)            0.79     -0.00   -0.79  H2O
  N2(g)             2.74     -0.70   -3.44  N2	 Pressure 555.2 atm, phi 0.999
  NH3(g)          -26.79    -26.85   -0.06  NH3
  O2(g)           -17.23    -20.50   -3.27  O2

**For a gas, SI = log10(fugacity). Fugacity = pressure * phi / 1 atm.
  For ideal gases, phi = 1.

Reaction step 13.

Using solution 1.	
Using gas phase 1.	
Using reaction 1.	

Reaction 1.	

	  1.350e+00 moles of the following reaction have been added:

	                 Relative
	Reactant            moles

	N2                   1.00000

	                 Relative
	Element             moles
	N                    2.00000

-----------------------------------Gas phase-----------------------------------

Total pressure: 601.68      atmospheres          (Peng-Robinson calculation)
    Gas volume:   1.00e+00 liters
  Molar volume:   5.77e-02 liters/mole
   P * Vm / RT:  0.99923  (Compressibility Factor Z) 

                                                        Moles in gas
                                            ----------------------------------
Component         log P           P    phi     Initial       Final       Delta

N2(g)              2.78   6.017e+02  0.999   1.600e+01   1.734e+01   1.342e+00

-----------------------------Solution composition------------------------------

	Elements           Molality       Moles

	N                 4.176e-01   4.176e-01

----------------------------Description of solution----------------------------

                                       pH  =   6.761      Charge balance
                                       pe  =  -0.974      Adjusted to redox equilibrium
      Specific Conductance (µS/cm, 150°C)  = 11
                          Density (g/cm³)  =   0.94795
                               Volume (L)  =   1.06107
                        Viscosity (mPa s)  =   0.19731
                        Activity of water  =   0.996
                 Ionic strength (mol/kgw)  =   1.197e-05
                       Mass of water (kg)  =   1.000e+00
                 Total alkalinity (eq/kg)  =   2.360e-05
                         Temperature (°C)  = 150.00
                           Pressure (atm)  = 601.68
                  Electrical balance (eq)  =  -2.360e-05
 Percent error, 100*(Cat-|An|)/(Cat+|An|)  = -98.54
                               Iterations  =  35
                                  Total H  = 1.110125e+02
                                  Total O  = 5.550624e+01

----------------------------Distribution of species----------------------------

                                               Log       Log       Log    mole V
   Species          Molality    Activity  Molality  Activity     Gamma   cm³/mol

   OH-             2.377e-05   2.365e-05    -4.624    -4.626    -0.002    -13.24
   H+              1.744e-07   1.735e-07    -6.759    -6.761    -0.002      0.00
   H2O             5.551e+01   9.964e-01     1.744    -0.002     0.000     19.01
H(0)          1.133e-15
   H2              5.667e-16   5.667e-16   -15.247   -15.247     0.000     18.91
N(-3)         5.400e-16
   NH3             3.067e-16   3.067e-16   -15.513   -15.513     0.000     21.53
   NH4+            2.333e-16   2.321e-16   -15.632   -15.634    -0.002     14.62
N(0)          4.176e-01
   N2              2.088e-01   2.088e-01    -0.680    -0.680     0.000     29.29
N(3)          2.266e-27
   NO2-            2.266e-27   2.254e-27   -26.645   -26.647    -0.002     22.32
N(5)          8.120e-35
   NO3-            8.120e-35   8.078e-35   -34.090   -34.093    -0.002     31.08
O(0)          4.959e-36
   O2              2.480e-36   2.480e-36   -35.606   -35.606     0.000     33.64

------------------------------Saturation indices-------------------------------

  Phase               SI** log IAP   log K(423 K, 602 atm)

  H2(g)           -12.15    -15.25   -3.09  H2
  H2O(g)            0.80     -0.00   -0.80  H2O
  N2(g)             2.78     -0.68   -3.46  N2	 Pressure 601.7 atm, phi 0.999
  NH3(g)          -15.44    -15.51   -0.07  NH3
  O2(g)           -32.31    -35.61   -3.29  O2

**For a gas, SI = log10(fugacity). Fugacity = pressure * phi / 1 atm.
  For ideal gases, phi = 1.

Reaction step 14.

Using solution 1.	
Using gas phase 1.	
Using reaction 1.	

Reaction 1.	

	  1.350e+00 moles of the following reaction have been added:

	                 Relative
	Reactant            moles

	N2                   1.00000

	                 Relative
	Element             moles
	N                    2.00000

-----------------------------------Gas phase-----------------------------------

Total pressure: 648.23      atmospheres          (Peng-Robinson calculation)
    Gas volume:   1.00e+00 liters
  Molar volume:   5.35e-02 liters/mole
   P * Vm / RT:  0.99918  (Compressibility Factor Z) 

                                                        Moles in gas
                                            ----------------------------------
Component         log P           P    phi     Initial       Final       Delta

N2(g)              2.81   6.482e+02  0.999   1.734e+01   1.868e+01   1.343e+00

-----------------------------Solution composition------------------------------

	Elements           Molality       Moles

	N                 4.326e-01   4.326e-01

----------------------------Description of solution----------------------------

                                       pH  =   6.742      Charge balance
                                       pe  =  -0.818      Adjusted to redox equilibrium
      Specific Conductance (µS/cm, 150°C)  = 11
                          Density (g/cm³)  =   0.95010
                               Volume (L)  =   1.05890
                        Viscosity (mPa s)  =   0.19841
                        Activity of water  =   0.996
                 Ionic strength (mol/kgw)  =   1.198e-05
                       Mass of water (kg)  =   1.000e+00
                 Total alkalinity (eq/kg)  =   2.360e-05
                         Temperature (°C)  = 150.00
                           Pressure (atm)  = 648.23
                  Electrical balance (eq)  =  -2.360e-05
 Percent error, 100*(Cat-|An|)/(Cat+|An|)  = -98.48
                               Iterations  =  31
                                  Total H  = 1.110125e+02
                                  Total O  = 5.550624e+01

----------------------------Distribution of species----------------------------

                                               Log       Log       Log    mole V
   Species          Molality    Activity  Molality  Activity     Gamma   cm³/mol

   OH-             2.378e-05   2.366e-05    -4.624    -4.626    -0.002    -13.32
   H+              1.821e-07   1.812e-07    -6.740    -6.742    -0.002      0.00
   H2O             5.551e+01   9.963e-01     1.744    -0.002     0.000     18.96
H(0)          5.896e-16
   H2              2.948e-16   2.948e-16   -15.530   -15.530     0.000     18.82
N(-3)         2.160e-16
   NH3             1.199e-16   1.199e-16   -15.921   -15.921     0.000     21.68
   NH4+            9.611e-17   9.561e-17   -16.017   -16.019    -0.002     14.79
N(0)          4.326e-01
   N2              2.163e-01   2.163e-01    -0.665    -0.665     0.000     29.29
N(3)          5.896e-27
   NO2-            5.896e-27   5.865e-27   -26.229   -26.232    -0.002     22.39
N(5)          4.026e-34
   NO3-            4.026e-34   4.005e-34   -33.395   -33.397    -0.002     31.02
O(0)          1.759e-35
   O2              8.795e-36   8.795e-36   -35.056   -35.056     0.000     33.50

------------------------------Saturation indices-------------------------------

  Phase               SI** log IAP   log K(423 K, 648 atm)

  H2(g)           -12.43    -15.53   -3.10  H2
  H2O(g)            0.81     -0.00   -0.81  H2O
  N2(g)             2.81     -0.66   -3.48  N2	 Pressure 648.2 atm, phi 0.999
  NH3(g)          -15.83    -15.92   -0.09  NH3
  O2(g)           -31.75    -35.06   -3.31  O2

**For a gas, SI = log10(fugacity). Fugacity = pressure * phi / 1 atm.
  For ideal gases, phi = 1.

Reaction step 15.

Using solution 1.	
Using gas phase 1.	
Using reaction 1.	

Reaction 1.	

	  1.350e+00 moles of the following reaction have been added:

	                 Relative
	Reactant            moles

	N2                   1.00000

	                 Relative
	Element             moles
	N                    2.00000

-----------------------------------Gas phase-----------------------------------

Total pressure: 694.81      atmospheres          (Peng-Robinson calculation)
    Gas volume:   1.00e+00 liters
  Molar volume:   4.99e-02 liters/mole
   P * Vm / RT:  0.99913  (Compressibility Factor Z) 

                                                        Moles in gas
                                            ----------------------------------
Component         log P           P    phi     Initial       Final       Delta

N2(g)              2.84   6.948e+02  0.999   1.868e+01   2.003e+01   1.343e+00

-----------------------------Solution composition------------------------------

	Elements           Molality       Moles

	N                 4.458e-01   4.458e-01

----------------------------Description of solution----------------------------

                                       pH  =   6.723      Charge balance
                                       pe  =   2.916      Adjusted to redox equilibrium
      Specific Conductance (µS/cm, 150°C)  = 11
                          Density (g/cm³)  =   0.95222
                               Volume (L)  =   1.05674
                        Viscosity (mPa s)  =   0.19949
                        Activity of water  =   0.996
                 Ionic strength (mol/kgw)  =   1.199e-05
                       Mass of water (kg)  =   1.000e+00
                 Total alkalinity (eq/kg)  =   2.360e-05
                         Temperature (°C)  = 150.00
                           Pressure (atm)  = 694.81
                  Electrical balance (eq)  =  -2.360e-05
 Percent error, 100*(Cat-|An|)/(Cat+|An|)  = -98.41
                               Iterations  =  56
                                  Total H  = 1.110125e+02
                                  Total O  = 5.550624e+01

----------------------------Distribution of species----------------------------

                                               Log       Log       Log    mole V
   Species          Molality    Activity  Molality  Activity     Gamma   cm³/mol

   OH-             2.379e-05   2.367e-05    -4.624    -4.626    -0.002    -13.40
   H+              1.902e-07   1.893e-07    -6.721    -6.723    -0.002      0.00
   H2O             5.551e+01   9.962e-01     1.744    -0.002     0.000     18.92
H(0)          2.133e-23
   H2              1.066e-23   1.067e-23   -22.972   -22.972     0.000     18.74
N(-3)         1.581e-27
   NH3             8.571e-28   8.571e-28   -27.067   -27.067     0.000     21.83
   NH4+            7.238e-28   7.201e-28   -27.140   -27.143    -0.002     14.96
N(0)          4.458e-01
   N2              2.229e-01   2.229e-01    -0.652    -0.652     0.000     29.29
N(3)          8.343e-16
   NO2-            8.343e-16   8.300e-16   -15.079   -15.081    -0.002     22.45
N(5)          1.562e-15
   NO3-            1.562e-15   1.554e-15   -14.806   -14.809    -0.002     30.97
O(0)          1.291e-20
   O2              6.454e-21   6.454e-21   -20.190   -20.190     0.000     33.36

------------------------------Saturation indices-------------------------------

  Phase               SI** log IAP   log K(423 K, 695 atm)

  H2(g)           -19.86    -22.97   -3.11  H2
  H2O(g)            0.82     -0.00   -0.82  H2O
  N2(g)             2.84     -0.65   -3.49  N2	 Pressure 694.8 atm, phi 0.999
  NH3(g)          -26.97    -27.07   -0.10  NH3
  O2(g)           -16.86    -20.19   -3.33  O2

**For a gas, SI = log10(fugacity). Fugacity = pressure * phi / 1 atm.
  For ideal gases, phi = 1.

Reaction step 16.

Using solution 1.	
Using gas phase 1.	
Using reaction 1.	

Reaction 1.	

	  1.350e+00 moles of the following reaction have been added:

	                 Relative
	Reactant            moles

	N2                   1.00000

	                 Relative
	Element             moles
	N                    2.00000

-----------------------------------Gas phase-----------------------------------

Total pressure: 741.40      atmospheres          (Peng-Robinson calculation)
    Gas volume:   1.00e+00 liters
  Molar volume:   4.68e-02 liters/mole
   P * Vm / RT:  0.99908  (Compressibility Factor Z) 

                                                        Moles in gas
                                            ----------------------------------
Component         log P           P    phi     Initial       Final       Delta

N2(g)              2.87   7.414e+02  0.999   2.003e+01   2.137e+01   1.344e+00

-----------------------------Solution composition------------------------------

	Elements           Molality       Moles

	N                 4.573e-01   4.573e-01

----------------------------Description of solution----------------------------

                                       pH  =   6.704      Charge balance
                                       pe  =   2.948      Adjusted to redox equilibrium
      Specific Conductance (µS/cm, 150°C)  = 11
                          Density (g/cm³)  =   0.95431
                               Volume (L)  =   1.05459
                        Viscosity (mPa s)  =   0.20058
                        Activity of water  =   0.996
                 Ionic strength (mol/kgw)  =   1.200e-05
                       Mass of water (kg)  =   1.000e+00
                 Total alkalinity (eq/kg)  =   2.360e-05
                         Temperature (°C)  = 150.00
                           Pressure (atm)  = 741.40
                  Electrical balance (eq)  =  -2.360e-05
 Percent error, 100*(Cat-|An|)/(Cat+|An|)  = -98.34
                               Iterations  =  55
                                  Total H  = 1.110125e+02
                                  Total O  = 5.550624e+01

----------------------------Distribution of species----------------------------

                                               Log       Log       Log    mole V
   Species          Molality    Activity  Molality  Activity     Gamma   cm³/mol

   OH-             2.380e-05   2.368e-05    -4.623    -4.626    -0.002    -13.48
   H+              1.987e-07   1.977e-07    -6.702    -6.704    -0.002      0.00
   H2O             5.551e+01   9.961e-01     1.744    -0.002     0.000     18.88
H(0)          1.965e-23
   H2              9.827e-24   9.827e-24   -23.008   -23.008     0.000     18.66
N(-3)         1.484e-27
   NH3             7.853e-28   7.853e-28   -27.105   -27.105     0.000     21.97
   NH4+            6.988e-28   6.953e-28   -27.156   -27.158    -0.002     15.13
N(0)          4.573e-01
   N2              2.287e-01   2.287e-01    -0.641    -0.641     0.000     29.29
N(3)          9.163e-16
   NO2-            9.163e-16   9.116e-16   -15.038   -15.040    -0.002     22.51
N(5)          1.847e-15
   NO3-            1.847e-15   1.837e-15   -14.734   -14.736    -0.002     30.92
O(0)          1.461e-20
   O2              7.304e-21   7.304e-21   -20.136   -20.136     0.000     33.23

------------------------------Saturation indices-------------------------------

  Phase               SI** log IAP   log K(423 K, 741 atm)

  H2(g)           -19.88    -23.01   -3.12  H2
  H2O(g)            0.83     -0.00   -0.83  H2O
  N2(g)             2.87     -0.64   -3.51  N2	 Pressure 741.4 atm, phi 0.999
  NH3(g)          -26.99    -27.10   -0.11  NH3
  O2(g)           -16.79    -20.14   -3.35  O2

**For a gas, SI = log10(fugacity). Fugacity = pressure * phi / 1 atm.
  For ideal gases, phi = 1.

Reaction step 17.

Using solution 1.	
Using gas phase 1.	
Using reaction 1.	

Reaction 1.	

	  1.350e+00 moles of the following reaction have been added:

	                 Relative
	Reactant            moles

	N2                   1.00000

	                 Relative
	Element             moles
	N                    2.00000

-----------------------------------Gas phase-----------------------------------

Total pressure: 788.03      atmospheres          (Peng-Robinson calculation)
    Gas volume:   1.00e+00 liters
  Molar volume:   4.40e-02 liters/mole
   P * Vm / RT:  0.99903  (Compressibility Factor Z) 

                                                        Moles in gas
                                            ----------------------------------
Component         log P           P    phi     Initial       Final       Delta

N2(g)              2.90   7.880e+02  0.999   2.137e+01   2.272e+01   1.345e+00

-----------------------------Solution composition------------------------------

	Elements           Molality       Moles

	N                 4.673e-01   4.673e-01

----------------------------Description of solution----------------------------

                                       pH  =   6.685      Charge balance
                                       pe  =   3.040      Adjusted to redox equilibrium
      Specific Conductance (µS/cm, 150°C)  = 11
                          Density (g/cm³)  =   0.95637
                               Volume (L)  =   1.05246
                        Viscosity (mPa s)  =   0.20165
                        Activity of water  =   0.996
                 Ionic strength (mol/kgw)  =   1.201e-05
                       Mass of water (kg)  =   1.000e+00
                 Total alkalinity (eq/kg)  =   2.360e-05
                         Temperature (°C)  = 150.00
                           Pressure (atm)  = 788.03
                  Electrical balance (eq)  =  -2.360e-05
 Percent error, 100*(Cat-|An|)/(Cat+|An|)  = -98.27
                               Iterations  =  54
                                  Total H  = 1.110125e+02
                                  Total O  = 5.550624e+01

----------------------------Distribution of species----------------------------

                                               Log       Log       Log    mole V
   Species          Molality    Activity  Molality  Activity     Gamma   cm³/mol

   OH-             2.381e-05   2.369e-05    -4.623    -4.625    -0.002    -13.56
   H+              2.076e-07   2.066e-07    -6.683    -6.685    -0.002      0.00
   H2O             5.551e+01   9.960e-01     1.744    -0.002     0.000     18.84
H(0)          1.370e-23
   H2              6.849e-24   6.849e-24   -23.164   -23.164     0.000     18.58
N(-3)         9.150e-28
   NH3             4.721e-28   4.721e-28   -27.326   -27.326     0.000     22.11
   NH4+            4.428e-28   4.406e-28   -27.354   -27.356    -0.002     15.29
N(0)          4.673e-01
   N2              2.336e-01   2.337e-01    -0.631    -0.631     0.000     29.29
N(3)          1.526e-15
   NO2-            1.526e-15   1.519e-15   -14.816   -14.819    -0.002     22.57
N(5)          4.380e-15
   NO3-            4.380e-15   4.358e-15   -14.358   -14.361    -0.002     30.86
O(0)          2.890e-20
   O2              1.445e-20   1.445e-20   -19.840   -19.840     0.000     33.10

------------------------------Saturation indices-------------------------------

  Phase               SI** log IAP   log K(423 K, 788 atm)

  H2(g)           -20.03    -23.16   -3.13  H2
  H2O(g)            0.84     -0.00   -0.84  H2O
  N2(g)             2.90     -0.63   -3.53  N2	 Pressure 788.0 atm, phi 0.999
  NH3(g)          -27.20    -27.33   -0.13  NH3
  O2(g)           -16.47    -19.84   -3.37  O2

**For a gas, SI = log10(fugacity). Fugacity = pressure * phi / 1 atm.
  For ideal gases, phi = 1.

Reaction step 18.

Using solution 1.	
Using gas phase 1.	
Using reaction 1.	

Reaction 1.	

	  1.350e+00 moles of the following reaction have been added:

	                 Relative
	Reactant            moles

	N2                   1.00000

	                 Relative
	Element             moles
	N                    2.00000

-----------------------------------Gas phase-----------------------------------

Total pressure: 834.67      atmospheres          (Peng-Robinson calculation)
    Gas volume:   1.00e+00 liters
  Molar volume:   4.16e-02 liters/mole
   P * Vm / RT:  0.99898  (Compressibility Factor Z) 

                                                        Moles in gas
                                            ----------------------------------
Component         log P           P    phi     Initial       Final       Delta

N2(g)              2.92   8.347e+02  0.999   2.272e+01   2.406e+01   1.346e+00

-----------------------------Solution composition------------------------------

	Elements           Molality       Moles

	N                 4.758e-01   4.758e-01

----------------------------Description of solution----------------------------

                                       pH  =   6.666      Charge balance
                                       pe  =   3.020      Adjusted to redox equilibrium
      Specific Conductance (µS/cm, 150°C)  = 11
                          Density (g/cm³)  =   0.95841
                               Volume (L)  =   1.05035
                        Viscosity (mPa s)  =   0.20273
                        Activity of water  =   0.996
                 Ionic strength (mol/kgw)  =   1.202e-05
                       Mass of water (kg)  =   1.000e+00
                 Total alkalinity (eq/kg)  =   2.360e-05
                         Temperature (°C)  = 150.00
                           Pressure (atm)  = 834.67
                  Electrical balance (eq)  =  -2.360e-05
 Percent error, 100*(Cat-|An|)/(Cat+|An|)  = -98.19
                               Iterations  =  53
                                  Total H  = 1.110125e+02
                                  Total O  = 5.550624e+01

----------------------------Distribution of species----------------------------

                                               Log       Log       Log    mole V
   Species          Molality    Activity  Molality  Activity     Gamma   cm³/mol

   OH-             2.382e-05   2.370e-05    -4.623    -4.625    -0.002    -13.64
   H+              2.170e-07   2.159e-07    -6.664    -6.666    -0.002      0.00
   H2O             5.551e+01   9.960e-01     1.744    -0.002     0.000     18.80
H(0)          1.602e-23
   H2              8.008e-24   8.008e-24   -23.096   -23.096     0.000     18.51
N(-3)         1.224e-27
   NH3             6.155e-28   6.155e-28   -27.211   -27.211     0.000     22.24
   NH4+            6.084e-28   6.053e-28   -27.216   -27.218    -0.002     15.44
N(0)          4.758e-01
   N2              2.379e-01   2.379e-01    -0.624    -0.624     0.000     29.29
N(3)          1.168e-15
   NO2-            1.168e-15   1.162e-15   -14.933   -14.935    -0.002     22.62
N(5)          2.845e-15
   NO3-            2.845e-15   2.831e-15   -14.546   -14.548    -0.002     30.81
O(0)          2.033e-20
   O2              1.016e-20   1.016e-20   -19.993   -19.993     0.000     32.98

------------------------------Saturation indices-------------------------------

  Phase               SI** log IAP   log K(423 K, 835 atm)

  H2(g)           -19.95    -23.10   -3.15  H2
  H2O(g)            0.85     -0.00   -0.85  H2O
  N2(g)             2.92     -0.62   -3.54  N2	 Pressure 834.7 atm, phi 0.999
  NH3(g)          -27.07    -27.21   -0.14  NH3
  O2(g)           -16.61    -19.99   -3.38  O2

**For a gas, SI = log10(fugacity). Fugacity = pressure * phi / 1 atm.
  For ideal gases, phi = 1.

Reaction step 19.

Using solution 1.	
Using gas phase 1.	
Using reaction 1.	

Reaction 1.	

	  1.350e+00 moles of the following reaction have been added:

	                 Relative
	Reactant            moles

	N2                   1.00000

	                 Relative
	Element             moles
	N                    2.00000

-----------------------------------Gas phase-----------------------------------

Total pressure: 881.34      atmospheres          (Peng-Robinson calculation)
    Gas volume:   1.00e+00 liters
  Molar volume:   3.94e-02 liters/mole
   P * Vm / RT:  0.99894  (Compressibility Factor Z) 

                                                        Moles in gas
                                            ----------------------------------
Component         log P           P    phi     Initial       Final       Delta

N2(g)              2.95   8.813e+02  0.999   2.406e+01   2.541e+01   1.346e+00

-----------------------------Solution composition------------------------------

	Elements           Molality       Moles

	N                 4.830e-01   4.830e-01

----------------------------Description of solution----------------------------

                                       pH  =   6.647      Charge balance
                                       pe  =   3.029      Adjusted to redox equilibrium
      Specific Conductance (µS/cm, 150°C)  = 11
                          Density (g/cm³)  =   0.96041
                               Volume (L)  =   1.04826
                        Viscosity (mPa s)  =   0.20379
                        Activity of water  =   0.996
                 Ionic strength (mol/kgw)  =   1.203e-05
                       Mass of water (kg)  =   1.000e+00
                 Total alkalinity (eq/kg)  =   2.360e-05
                         Temperature (°C)  = 150.00
                           Pressure (atm)  = 881.34
                  Electrical balance (eq)  =  -2.360e-05
 Percent error, 100*(Cat-|An|)/(Cat+|An|)  = -98.11
                               Iterations  =  52
                                  Total H  = 1.110125e+02
                                  Total O  = 5.550624e+01

----------------------------Distribution of species----------------------------

                                               Log       Log       Log    mole V
   Species          Molality    Activity  Molality  Activity     Gamma   cm³/mol

   OH-             2.383e-05   2.371e-05    -4.623    -4.625    -0.002    -13.71
   H+              2.267e-07   2.256e-07    -6.645    -6.647    -0.002      0.00
   H2O             5.551e+01   9.959e-01     1.744    -0.002     0.000     18.76
H(0)          1.641e-23
   H2              8.205e-24   8.205e-24   -23.086   -23.086     0.000     18.44
N(-3)         1.341e-27
   NH4+            6.844e-28   6.809e-28   -27.165   -27.167    -0.002     15.59
   NH3             6.568e-28   6.568e-28   -27.183   -27.183     0.000     22.37
N(0)          4.830e-01
   N2              2.415e-01   2.415e-01    -0.617    -0.617     0.000     29.29
N(3)          1.088e-15
   NO2-            1.088e-15   1.082e-15   -14.964   -14.966    -0.002     22.68
N(5)          2.567e-15
   NO3-            2.567e-15   2.554e-15   -14.591   -14.593    -0.002     30.76
O(0)          1.862e-20
   O2              9.312e-21   9.312e-21   -20.031   -20.031     0.000     32.86

------------------------------Saturation indices-------------------------------

  Phase               SI** log IAP   log K(423 K, 881 atm)

  H2(g)           -19.93    -23.09   -3.16  H2
  H2O(g)            0.86     -0.00   -0.87  H2O
  N2(g)             2.94     -0.62   -3.56  N2	 Pressure 881.3 atm, phi 0.999
  NH3(g)          -27.03    -27.18   -0.16  NH3
  O2(g)           -16.63    -20.03   -3.40  O2

**For a gas, SI = log10(fugacity). Fugacity = pressure * phi / 1 atm.
  For ideal gases, phi = 1.

Reaction step 20.

Using solution 1.	
Using gas phase 1.	
Using reaction 1.	

Reaction 1.	

	  1.350e+00 moles of the following reaction have been added:

	                 Relative
	Reactant            moles

	N2                   1.00000

	                 Relative
	Element             moles
	N                    2.00000

-----------------------------------Gas phase-----------------------------------

Total pressure: 928.02      atmospheres          (Peng-Robinson calculation)
    Gas volume:   1.00e+00 liters
  Molar volume:   3.74e-02 liters/mole
   P * Vm / RT:  0.99889  (Compressibility Factor Z) 

                                                        Moles in gas
                                            ----------------------------------
Component         log P           P    phi     Initial       Final       Delta

N2(g)              2.97   9.280e+02  0.999   2.541e+01   2.676e+01   1.347e+00

-----------------------------Solution composition------------------------------

	Elements           Molality       Moles

	N                 4.889e-01   4.889e-01

----------------------------Description of solution----------------------------

                                       pH  =   6.628      Charge balance
                                       pe  =   2.998      Adjusted to redox equilibrium
      Specific Conductance (µS/cm, 150°C)  = 11
                          Density (g/cm³)  =   0.96240
                               Volume (L)  =   1.04619
                        Viscosity (mPa s)  =   0.20486
                        Activity of water  =   0.996
                 Ionic strength (mol/kgw)  =   1.204e-05
                       Mass of water (kg)  =   1.000e+00
                 Total alkalinity (eq/kg)  =   2.360e-05
                         Temperature (°C)  = 150.00
                           Pressure (atm)  = 928.02
                  Electrical balance (eq)  =  -2.360e-05
 Percent error, 100*(Cat-|An|)/(Cat+|An|)  = -98.03
                               Iterations  =  50
                                  Total H  = 1.110125e+02
                                  Total O  = 5.550624e+01

----------------------------Distribution of species----------------------------

                                               Log       Log       Log    mole V
   Species          Molality    Activity  Molality  Activity     Gamma   cm³/mol

   OH-             2.384e-05   2.372e-05    -4.623    -4.625    -0.002    -13.79
   H+              2.369e-07   2.358e-07    -6.625    -6.628    -0.002      0.00
   H2O             5.551e+01   9.958e-01     1.744    -0.002     0.000     18.72
H(0)          2.025e-23
   H2              1.013e-23   1.013e-23   -22.995   -22.995     0.000     18.36
N(-3)         1.941e-27
   NH4+            1.016e-27   1.011e-27   -26.993   -26.995    -0.002     15.73
   NH3             9.251e-28   9.251e-28   -27.034   -27.034     0.000     22.50
N(0)          4.889e-01
   N2              2.445e-01   2.445e-01    -0.612    -0.612     0.000     29.29
N(3)          7.649e-16
   NO2-            7.649e-16   7.610e-16   -15.116   -15.119    -0.002     22.73
[...]
   NH4+            8.769e-15   8.724e-15   -14.057   -14.059    -0.002     14.97
N(0)          4.464e-01
   N2              2.232e-01   2.232e-01    -0.651    -0.651     0.000     29.29
N(3)          6.898e-29
   NO2-            6.898e-29   6.863e-29   -28.161   -28.163    -0.002     22.45
N(5)          2.451e-37
   NO3-            2.451e-37   2.438e-37   -36.611   -36.613    -0.002     30.97
O(0)          4.647e-38
   O2              2.323e-38   2.323e-38   -37.634   -37.634     0.000     33.36

------------------------------Saturation indices-------------------------------

  Phase               SI** log IAP   log K(423 K, 695 atm)

  H2(g)           -11.14    -14.25   -3.11  H2
  H2O(g)            0.82     -0.00   -0.82  H2O
  N2(g)             2.84     -0.65   -3.49  N2
  NH3(g)          -13.88    -13.98   -0.10  NH3
  O2(g)           -34.30    -37.63   -3.33  O2

**For a gas, SI = log10(fugacity). Fugacity = pressure * phi / 1 atm.
  For ideal gases, phi = 1.

Reaction step 16.

Using solution 1.	
Using gas phase 1.	
Using reaction 1.	

Reaction 1.	

	  1.350e+00 moles of the following reaction have been added:

	                 Relative
	Reactant            moles

	N2                   1.00000

	                 Relative
	Element             moles
	N                    2.00000

-----------------------------------Gas phase-----------------------------------

Total pressure: 742.08      atmospheres 
    Gas volume:   1.00e+00 liters
  Molar volume:   4.68e-02 liters/mole

                                                        Moles in gas
                                            ----------------------------------
Component                log P           P     Initial       Final       Delta

N2(g)                     2.87   7.421e+02   2.003e+01   2.137e+01   1.344e+00

-----------------------------Solution composition------------------------------

	Elements           Molality       Moles

	N                 4.579e-01   4.579e-01

----------------------------Description of solution----------------------------

                                       pH  =   6.704      Charge balance
                                       pe  =  -1.357      Adjusted to redox equilibrium
      Specific Conductance (µS/cm, 150°C)  = 11
                          Density (g/cm³)  =   0.95434
                               Volume (L)  =   1.05457
                        Viscosity (mPa s)  =   0.20059
                        Activity of water  =   0.996
                 Ionic strength (mol/kgw)  =   1.200e-05
                       Mass of water (kg)  =   1.000e+00
                 Total alkalinity (eq/kg)  =   2.360e-05
                         Temperature (°C)  = 150.00
                           Pressure (atm)  = 742.08
                  Electrical balance (eq)  =  -2.360e-05
 Percent error, 100*(Cat-|An|)/(Cat+|An|)  = -98.34
                               Iterations  =  63
                                  Total H  = 1.110125e+02
                                  Total O  = 5.550624e+01

----------------------------Distribution of species----------------------------

                                               Log       Log       Log    mole V
   Species          Molality    Activity  Molality  Activity     Gamma   cm³/mol

   OH-             2.380e-05   2.368e-05    -4.623    -4.626    -0.002    -13.48
   H+              1.989e-07   1.978e-07    -6.701    -6.704    -0.002      0.00
   H2O             5.551e+01   9.961e-01     1.744    -0.002     0.000     18.88
H(0)          8.024e-15
   H2              4.012e-15   4.012e-15   -14.397   -14.397     0.000     18.66
N(-3)         1.226e-14
   NH3             6.484e-15   6.484e-15   -14.188   -14.188     0.000     21.97
   NH4+            5.775e-15   5.745e-15   -14.238   -14.241    -0.002     15.13
N(0)          4.579e-01
   N2              2.290e-01   2.290e-01    -0.640    -0.640     0.000     29.29
N(3)          1.111e-28
   NO2-            1.111e-28   1.105e-28   -27.954   -27.957    -0.002     22.51
N(5)          5.483e-37
   NO3-            5.483e-37   5.455e-37   -36.261   -36.263    -0.002     30.92
O(0)          8.759e-38
   O2              4.380e-38   4.380e-38   -37.359   -37.359     0.000     33.23

------------------------------Saturation indices-------------------------------

  Phase               SI** log IAP   log K(423 K, 742 atm)

  H2(g)           -11.27    -14.40   -3.13  H2
  H2O(g)            0.83     -0.00   -0.83  H2O
  N2(g)             2.87     -0.64   -3.51  N2
  NH3(g)          -14.07    -14.19   -0.11  NH3
  O2(g)           -34.01    -37.36   -3.35  O2

**For a gas, SI = log10(fugacity). Fugacity = pressure * phi / 1 atm.
  For ideal gases, phi = 1.

Reaction step 17.

Using solution 1.	
Using gas phase 1.	
Using reaction 1.	

Reaction 1.	

	  1.350e+00 moles of the following reaction have been added:

	                 Relative
	Reactant            moles

	N2                   1.00000

	                 Relative
	Element             moles
	N                    2.00000

-----------------------------------Gas phase-----------------------------------

Total pressure: 788.78      atmospheres 
    Gas volume:   1.00e+00 liters
  Molar volume:   4.40e-02 liters/mole

                                                        Moles in gas
                                            ----------------------------------
Component                log P           P     Initial       Final       Delta

N2(g)                     2.90   7.888e+02   2.137e+01   2.272e+01   1.345e+00

-----------------------------Solution composition------------------------------

	Elements           Molality       Moles

	N                 4.679e-01   4.679e-01

----------------------------Description of solution----------------------------

                                       pH  =   6.685      Charge balance
                                       pe  =  -1.375      Adjusted to redox equilibrium
      Specific Conductance (µS/cm, 150°C)  = 11
                          Density (g/cm³)  =   0.95640
                               Volume (L)  =   1.05244
                        Viscosity (mPa s)  =   0.20167
                        Activity of water  =   0.996
                 Ionic strength (mol/kgw)  =   1.201e-05
                       Mass of water (kg)  =   1.000e+00
                 Total alkalinity (eq/kg)  =   2.360e-05
                         Temperature (°C)  = 150.00
                           Pressure (atm)  = 788.78
                  Electrical balance (eq)  =  -2.360e-05
 Percent error, 100*(Cat-|An|)/(Cat+|An|)  = -98.27
                               Iterations  =  72
                                  Total H  = 1.110125e+02
                                  Total O  = 5.550624e+01

----------------------------Distribution of species----------------------------

                                               Log       Log       Log    mole V
   Species          Molality    Activity  Molality  Activity     Gamma   cm³/mol

   OH-             2.381e-05   2.369e-05    -4.623    -4.625    -0.002    -13.56
   H+              2.078e-07   2.067e-07    -6.682    -6.685    -0.002      0.00
   H2O             5.551e+01   9.960e-01     1.744    -0.002     0.000     18.84
H(0)          9.293e-15
   H2              4.646e-15   4.646e-15   -14.333   -14.333     0.000     18.58
N(-3)         1.619e-14
   NH3             8.352e-15   8.352e-15   -14.078   -14.078     0.000     22.11
   NH4+            7.840e-15   7.800e-15   -14.106   -14.108    -0.002     15.29
N(0)          4.679e-01
   N2              2.340e-01   2.340e-01    -0.631    -0.631     0.000     29.29
N(3)          8.638e-29
   NO2-            8.638e-29   8.594e-29   -28.064   -28.066    -0.002     22.57
N(5)          3.653e-37
   NO3-            3.653e-37   3.635e-37   -36.437   -36.440    -0.002     30.86
O(0)          6.276e-38
   O2              3.138e-38   3.138e-38   -37.503   -37.503     0.000     33.10

------------------------------Saturation indices-------------------------------

  Phase               SI** log IAP   log K(423 K, 789 atm)

  H2(g)           -11.20    -14.33   -3.14  H2
  H2O(g)            0.84     -0.00   -0.84  H2O
  N2(g)             2.90     -0.63   -3.53  N2
  NH3(g)          -13.95    -14.08   -0.13  NH3
  O2(g)           -34.14    -37.50   -3.37  O2

**For a gas, SI = log10(fugacity). Fugacity = pressure * phi / 1 atm.
  For ideal gases, phi = 1.

Reaction step 18.

Using solution 1.	
Using gas phase 1.	
Using reaction 1.	

Reaction 1.	

	  1.350e+00 moles of the following reaction have been added:

	                 Relative
	Reactant            moles

	N2                   1.00000

	                 Relative
	Element             moles
	N                    2.00000

-----------------------------------Gas phase-----------------------------------

Total pressure: 835.51      atmospheres 
    Gas volume:   1.00e+00 liters
  Molar volume:   4.16e-02 liters/mole

                                                        Moles in gas
                                            ----------------------------------
Component                log P           P     Initial       Final       Delta

N2(g)                     2.92   8.355e+02   2.272e+01   2.406e+01   1.346e+00

-----------------------------Solution composition------------------------------

	Elements           Molality       Moles

	N                 4.765e-01   4.765e-01

----------------------------Description of solution----------------------------

                                       pH  =   6.665      Charge balance
                                       pe  =  -1.308      Adjusted to redox equilibrium
      Specific Conductance (µS/cm, 150°C)  = 11
                          Density (g/cm³)  =   0.95844
                               Volume (L)  =   1.05032
                        Viscosity (mPa s)  =   0.20275
                        Activity of water  =   0.996
                 Ionic strength (mol/kgw)  =   1.202e-05
                       Mass of water (kg)  =   1.000e+00
                 Total alkalinity (eq/kg)  =   2.360e-05
                         Temperature (°C)  = 150.00
                           Pressure (atm)  = 835.51
                  Electrical balance (eq)  =  -2.360e-05
 Percent error, 100*(Cat-|An|)/(Cat+|An|)  = -98.19
                               Iterations  =  84
                                  Total H  = 1.110125e+02
                                  Total O  = 5.550624e+01

----------------------------Distribution of species----------------------------

                                               Log       Log       Log    mole V
   Species          Molality    Activity  Molality  Activity     Gamma   cm³/mol

   OH-             2.382e-05   2.370e-05    -4.623    -4.625    -0.002    -13.64
   H+              2.171e-07   2.160e-07    -6.663    -6.665    -0.002      0.00
   H2O             5.551e+01   9.959e-01     1.744    -0.002     0.000     18.80
H(0)          7.274e-15
   H2              3.637e-15   3.637e-15   -14.439   -14.439     0.000     18.51
N(-3)         1.187e-14
   NH3             5.964e-15   5.964e-15   -14.224   -14.224     0.000     22.24
   NH4+            5.901e-15   5.871e-15   -14.229   -14.231    -0.002     15.44
N(0)          4.765e-01
   N2              2.383e-01   2.383e-01    -0.623    -0.623     0.000     29.29
N(3)          1.207e-28
   NO2-            1.207e-28   1.200e-28   -27.918   -27.921    -0.002     22.63
N(5)          6.470e-37
   NO3-            6.470e-37   6.437e-37   -36.189   -36.191    -0.002     30.81
O(0)          9.847e-38
   O2              4.923e-38   4.923e-38   -37.308   -37.308     0.000     32.98

------------------------------Saturation indices-------------------------------

  Phase               SI** log IAP   log K(423 K, 836 atm)

  H2(g)           -11.29    -14.44   -3.15  H2
  H2O(g)            0.85     -0.00   -0.85  H2O
  N2(g)             2.92     -0.62   -3.54  N2
  NH3(g)          -14.08    -14.22   -0.14  NH3
  O2(g)           -33.92    -37.31   -3.38  O2

**For a gas, SI = log10(fugacity). Fugacity = pressure * phi / 1 atm.
  For ideal gases, phi = 1.

Reaction step 19.

Using solution 1.	
Using gas phase 1.	
Using reaction 1.	

Reaction 1.	

	  1.350e+00 moles of the following reaction have been added:

	                 Relative
	Reactant            moles

	N2                   1.00000

	                 Relative
	Element             moles
	N                    2.00000

-----------------------------------Gas phase-----------------------------------

Total pressure: 882.26      atmospheres 
    Gas volume:   1.00e+00 liters
  Molar volume:   3.94e-02 liters/mole

                                                        Moles in gas
                                            ----------------------------------
Component                log P           P     Initial       Final       Delta

N2(g)                     2.95   8.823e+02   2.406e+01   2.541e+01   1.346e+00

-----------------------------Solution composition------------------------------

	Elements           Molality       Moles

	N                 4.837e-01   4.837e-01

----------------------------Description of solution----------------------------

                                       pH  =   6.646      Charge balance
                                       pe  =  -1.319      Adjusted to redox equilibrium
      Specific Conductance (µS/cm, 150°C)  = 11
                          Density (g/cm³)  =   0.96045
                               Volume (L)  =   1.04823
                        Viscosity (mPa s)  =   0.20382
                        Activity of water  =   0.996
                 Ionic strength (mol/kgw)  =   1.203e-05
                       Mass of water (kg)  =   1.000e+00
                 Total alkalinity (eq/kg)  =   2.360e-05
                         Temperature (°C)  = 150.00
                           Pressure (atm)  = 882.26
                  Electrical balance (eq)  =  -2.360e-05
 Percent error, 100*(Cat-|An|)/(Cat+|An|)  = -98.11
                               Iterations  =  99
                                  Total H  = 1.110125e+02
                                  Total O  = 5.550624e+01

----------------------------Distribution of species----------------------------

                                               Log       Log       Log    mole V
   Species          Molality    Activity  Molality  Activity     Gamma   cm³/mol

   OH-             2.383e-05   2.371e-05    -4.623    -4.625    -0.002    -13.72
   H+              2.269e-07   2.258e-07    -6.644    -6.646    -0.002      0.00
   H2O             5.551e+01   9.959e-01     1.744    -0.002     0.000     18.76
H(0)          8.187e-15
   H2              4.093e-15   4.093e-15   -14.388   -14.388     0.000     18.43
N(-3)         1.497e-14
   NH4+            7.643e-15   7.604e-15   -14.117   -14.119    -0.002     15.59
   NH3             7.327e-15   7.327e-15   -14.135   -14.135     0.000     22.37
N(0)          4.837e-01
   N2              2.419e-01   2.419e-01    -0.616    -0.616     0.000     29.29
N(3)          9.760e-29
   NO2-            9.760e-29   9.710e-29   -28.011   -28.013    -0.002     22.68
N(5)          4.617e-37
   NO3-            4.617e-37   4.593e-37   -36.336   -36.338    -0.002     30.76
O(0)          7.477e-38
   O2              3.738e-38   3.738e-38   -37.427   -37.427     0.000     32.86

------------------------------Saturation indices-------------------------------

  Phase               SI** log IAP   log K(423 K, 882 atm)

  H2(g)           -11.23    -14.39   -3.16  H2
  H2O(g)            0.86     -0.00   -0.87  H2O
  N2(g)             2.95     -0.62   -3.56  N2
  NH3(g)          -13.98    -14.14   -0.16  NH3
  O2(g)           -34.03    -37.43   -3.40  O2

**For a gas, SI = log10(fugacity). Fugacity = pressure * phi / 1 atm.
  For ideal gases, phi = 1.

Reaction step 20.

WARNING: Maximum iterations exceeded, 100

WARNING: Numerical method failed with this set of convergence parameters.

WARNING: Trying smaller step size, pe step size 10, 5 ... 

Using solution 1.	
Using gas phase 1.	
Using reaction 1.	

Reaction 1.	

	  1.350e+00 moles of the following reaction have been added:

	                 Relative
	Reactant            moles

	N2                   1.00000

	                 Relative
	Element             moles
	N                    2.00000

-----------------------------------Gas phase-----------------------------------

Total pressure: 929.03      atmospheres 
    Gas volume:   1.00e+00 liters
  Molar volume:   3.74e-02 liters/mole

                                                        Moles in gas
                                            ----------------------------------
Component                log P           P     Initial       Final       Delta

N2(g)                     2.97   9.290e+02   2.541e+01   2.676e+01   1.347e+00

-----------------------------Solution composition------------------------------

	Elements           Molality       Moles

	N                 4.897e-01   4.897e-01

----------------------------Description of solution----------------------------

                                       pH  =   6.627      Charge balance
                                       pe  =  -1.304      Adjusted to redox equilibrium
      Specific Conductance (µS/cm, 150°C)  = 11
                          Density (g/cm³)  =   0.96244
                               Volume (L)  =   1.04615
                        Viscosity (mPa s)  =   0.20488
                        Activity of water  =   0.996
                 Ionic strength (mol/kgw)  =   1.204e-05
                       Mass of water (kg)  =   1.000e+00
                 Total alkalinity (eq/kg)  =   2.360e-05
                         Temperature (°C)  = 150.00
                           Pressure (atm)  = 929.03
                  Electrical balance (eq)  =  -2.360e-05
 Percent error, 100*(Cat-|An|)/(Cat+|An|)  = -98.03
                               Iterations  = 117 (218 overall)
                                  Total H  = 1.110125e+02
                                  Total O  = 5.550624e+01

----------------------------Distribution of species----------------------------

                                               Log       Log       Log    mole V
   Species          Molality    Activity  Molality  Activity     Gamma   cm³/mol

   OH-             2.384e-05   2.372e-05    -4.623    -4.625    -0.002    -13.79
   H+              2.372e-07   2.360e-07    -6.625    -6.627    -0.002      0.00
   H2O             5.551e+01   9.958e-01     1.744    -0.002     0.000     18.72
H(0)          8.129e-15
   H2              4.065e-15   4.065e-15   -14.391   -14.391     0.000     18.36
N(-3)         1.564e-14
   NH4+            8.189e-15   8.148e-15   -14.087   -14.089    -0.002     15.74
   NH3             7.447e-15   7.447e-15   -14.128   -14.128     0.000     22.50
N(0)          4.897e-01
   N2              2.448e-01   2.448e-01    -0.611    -0.611     0.000     29.29
N(3)          9.511e-29
   NO2-            9.511e-29   9.463e-29   -28.022   -28.024    -0.002     22.73
N(5)          4.499e-37
   NO3-            4.499e-37   4.476e-37   -36.347   -36.349    -0.002     30.72
O(0)          7.295e-38
   O2              3.648e-38   3.648e-38   -37.438   -37.438     0.000     32.74

------------------------------Saturation indices-------------------------------

  Phase               SI** log IAP   log K(423 K, 929 atm)

  H2(g)           -11.23    -14.39   -3.17  H2
  H2O(g)            0.87     -0.00   -0.88  H2O
  N2(g)             2.97     -0.61   -3.58  N2
  NH3(g)          -13.96    -14.13   -0.17  NH3
  O2(g)           -34.02    -37.44   -3.42  O2

**For a gas, SI = log10(fugacity). Fugacity = pressure * phi / 1 atm.
  For ideal gases, phi = 1.

------------------
End of simulation.
------------------

------------------------------------
Reading input data for simulation 3.
------------------------------------

