WARNING: Database file from DATABASE keyword is used; command line argument ignored.
   Input file: N2_ideal
  Output file: N2_ideal.out
Database file: ../database/phreeqc.dat

------------------
Reading data base.
------------------

	SOLUTION_MASTER_SPECIES
	SOLUTION_SPECIES
	PHASES
	GAS_BINARY_PARAMETERS
	EXCHANGE_MASTER_SPECIES
	EXCHANGE_SPECIES
	SURFACE_MASTER_SPECIES
	SURFACE_SPECIES
	MEAN_GAMMAS
	RATES
	END
------------------------------------
Reading input data for simulation 1.
------------------------------------

	DATABASE ../database/phreeqc.dat
	SELECTED_OUTPUT 101
	    file                 N2_ideal_101.sel
	USER_PUNCH 101
	    headings Mu SC
	    start
	10 PUNCH STR_F$(MU, 20, 12)
	20 PUNCH STR_F$(SC, 20, 10)
	    end
	PHASES
	N2(g)
	N2 = N2
	log_k		 -3.1864
	analytical_expression -58.453 1.81800E-03  3199  17.909 -27460
	t_c 150
	 p_c 3000 # these parameters give near ideal behavior
	SOLUTION 1
	 temp 150 # the ideal one (below) does not converge with temp 200
	INCREMENTAL_REACTIONS
	GAS_PHASE 1
	 fixed_volume
	 N2(g) 0
	REACTION 1
	 N2 1
	 27 in 20
	 USER_GRAPH
	 -headings Vm N2-ideal/critical
	 -axis_titles "Gas Molar Volume / (L/mole)" "Gas Pressure / atm"
	 10 graph_x gas_vm
	 20 graph_y gas_p
	END
-------------------------------------------
Beginning of initial solution calculations.
-------------------------------------------

Initial solution 1.	

-----------------------------Solution composition------------------------------

	Elements           Molality       Moles

	Pure water     

----------------------------Description of solution----------------------------

                                       pH  =   7.000    
                                       pe  =   4.000    
      Specific Conductance (µS/cm, 150°C)  = 12
                          Density (g/cm³)  =   0.91701
                               Volume (L)  =   1.09050
                        Viscosity (mPa s)  =   0.18262
                        Activity of water  =   1.000
                 Ionic strength (mol/kgw)  =   1.190e-05
                       Mass of water (kg)  =   1.000e+00
                 Total alkalinity (eq/kg)  =   2.360e-05
                         Temperature (°C)  = 150.00
                  Electrical balance (eq)  =  -2.360e-05
 Percent error, 100*(Cat-|An|)/(Cat+|An|)  = -99.16
                               Iterations  =   3
                                  Total H  = 1.110125e+02
                                  Total O  = 5.550624e+01

----------------------------Distribution of species----------------------------

                                               Log       Log       Log    mole V
   Species          Molality    Activity  Molality  Activity     Gamma   cm³/mol

   OH-             2.370e-05   2.357e-05    -4.625    -4.628    -0.002    -12.09
   H+              1.005e-07   1.000e-07    -6.998    -7.000    -0.002      0.00
   H2O             5.551e+01   1.000e+00     1.744    -0.000     0.000     19.65
H(0)          5.891e-26
   H2              2.945e-26   2.945e-26   -25.531   -25.531     0.000     20.32
O(0)          3.298e-15
   O2              1.649e-15   1.649e-15   -14.783   -14.783     0.000     35.93

------------------------------Saturation indices-------------------------------

  Phase               SI** log IAP   log K(423 K,   1 atm)

  H2(g)           -22.58    -25.53   -2.95  H2
  H2O(g)            0.66     -0.00   -0.66  H2O
  O2(g)           -11.74    -14.78   -3.04  O2

**For a gas, SI = log10(fugacity). Fugacity = pressure * phi / 1 atm.
  For ideal gases, phi = 1.

-----------------------------------------
Beginning of batch-reaction calculations.
-----------------------------------------

Reaction step 1.

Using solution 1.	
Using gas phase 1.	
Using reaction 1.	

Reaction 1.	

	  1.350e+00 moles of the following reaction have been added:

	                 Relative
	Reactant            moles

	N2                   1.00000

	                 Relative
	Element             moles
	N                    2.00000

-----------------------------------Gas phase-----------------------------------

Total pressure: 45.99      atmospheres          (Peng-Robinson calculation)
    Gas volume:   1.00e+00 liters
  Molar volume:   7.55e-01 liters/mole
   P * Vm / RT:  0.99993  (Compressibility Factor Z) 

                                                        Moles in gas
                                            ----------------------------------
Component         log P           P    phi     Initial       Final       Delta

N2(g)              1.66   4.599e+01  1.000   0.000e+00   1.324e+00   1.324e+00

-----------------------------Solution composition------------------------------

	Elements           Molality       Moles

	N                 5.104e-02   5.104e-02

----------------------------Description of solution----------------------------

                                       pH  =   6.982      Charge balance
                                       pe  =   2.733      Adjusted to redox equilibrium
      Specific Conductance (µS/cm, 150°C)  = 12
                          Density (g/cm³)  =   0.91704
                               Volume (L)  =   1.09125
                        Viscosity (mPa s)  =   0.18262
                        Activity of water  =   1.000
                 Ionic strength (mol/kgw)  =   1.190e-05
                       Mass of water (kg)  =   1.000e+00
                 Total alkalinity (eq/kg)  =   2.360e-05
                         Temperature (°C)  = 150.00
                           Pressure (atm)  = 45.99
                  Electrical balance (eq)  =  -2.360e-05
 Percent error, 100*(Cat-|An|)/(Cat+|An|)  = -99.12
                               Iterations  =  38
                                  Total H  = 1.110125e+02
                                  Total O  = 5.550624e+01

----------------------------Distribution of species----------------------------

                                               Log       Log       Log    mole V
   Species          Molality    Activity  Molality  Activity     Gamma   cm³/mol

   OH-             2.371e-05   2.358e-05    -4.625    -4.628    -0.002    -12.18
   H+              1.047e-07   1.041e-07    -6.980    -6.982    -0.002      0.00
   H2O             5.551e+01   9.996e-01     1.744    -0.000     0.000     19.65
H(0)          2.129e-23
   H2              1.065e-23   1.065e-23   -22.973   -22.973     0.000     20.19
N(-3)         2.774e-28
   NH3             1.968e-28   1.969e-28   -27.706   -27.706     0.000     19.17
   NH4+            8.052e-29   8.009e-29   -28.094   -28.096    -0.002     11.91
N(0)          5.104e-02
   N2              2.552e-02   2.552e-02    -1.593    -1.593     0.000     29.29
N(3)          5.001e-16
   NO2-            5.001e-16   4.974e-16   -15.301   -15.303    -0.002     21.27
N(5)          1.096e-15
   NO3-            1.096e-15   1.090e-15   -14.960   -14.963    -0.002     31.87
O(0)          2.405e-20
   O2              1.202e-20   1.202e-20   -19.920   -19.920     0.000     35.72

------------------------------Saturation indices-------------------------------

  Phase               SI** log IAP   log K(423 K,  46 atm)

  H2(g)           -20.01    -22.97   -2.96  H2
  H2O(g)            0.67     -0.00   -0.67  H2O
  N2(g)             1.66     -1.59   -3.26  N2	 Pressure  46.0 atm, phi 1.000
  NH3(g)          -27.78    -27.71    0.08  NH3
  O2(g)           -16.86    -19.92   -3.06  O2

**For a gas, SI = log10(fugacity). Fugacity = pressure * phi / 1 atm.
  For ideal gases, phi = 1.

Reaction step 2.

Using solution 1.	
Using gas phase 1.	
Using reaction 1.	

Reaction 1.	

	  1.350e+00 moles of the following reaction have been added:

	                 Relative
	Reactant            moles

	N2                   1.00000

	                 Relative
	Element             moles
	N                    2.00000

-----------------------------------Gas phase-----------------------------------

Total pressure: 92.04      atmospheres          (Peng-Robinson calculation)
    Gas volume:   1.00e+00 liters
  Molar volume:   3.77e-01 liters/mole
   P * Vm / RT:  0.99987  (Compressibility Factor Z) 

                                                        Moles in gas
                                            ----------------------------------
Component         log P           P    phi     Initial       Final       Delta

N2(g)              1.96   9.204e+01  1.000   1.324e+00   2.651e+00   1.326e+00

-----------------------------Solution composition------------------------------

	Elements           Molality       Moles

	N                 9.826e-02   9.826e-02

----------------------------Description of solution----------------------------

                                       pH  =   6.964      Charge balance
                                       pe  =   2.606      Adjusted to redox equilibrium
      Specific Conductance (µS/cm, 150°C)  = 11
                          Density (g/cm³)  =   0.92202
                               Volume (L)  =   1.08607
                        Viscosity (mPa s)  =   0.18487
                        Activity of water  =   0.999
                 Ionic strength (mol/kgw)  =   1.191e-05
                       Mass of water (kg)  =   1.000e+00
                 Total alkalinity (eq/kg)  =   2.360e-05
                         Temperature (°C)  = 150.00
                           Pressure (atm)  = 92.04
                  Electrical balance (eq)  =  -2.360e-05
 Percent error, 100*(Cat-|An|)/(Cat+|An|)  = -99.08
                               Iterations  =  23
                                  Total H  = 1.110125e+02
                                  Total O  = 5.550624e+01

----------------------------Distribution of species----------------------------

                                               Log       Log       Log    mole V
   Species          Molality    Activity  Molality  Activity     Gamma   cm³/mol

   OH-             2.371e-05   2.358e-05    -4.625    -4.627    -0.002    -12.28
   H+              1.091e-07   1.086e-07    -6.962    -6.964    -0.002      0.00
   H2O             5.551e+01   9.992e-01     1.744    -0.000     0.000     19.54
H(0)          4.049e-23
   H2              2.024e-23   2.024e-23   -22.694   -22.694     0.000     20.06
N(-3)         1.059e-27
   NH3             7.403e-28   7.403e-28   -27.131   -27.131     0.000     19.41
   NH4+            3.187e-28   3.170e-28   -27.497   -27.499    -0.002     12.19
N(0)          9.826e-02
   N2              4.913e-02   4.913e-02    -1.309    -1.309     0.000     29.29
N(3)          2.543e-16
   NO2-            2.543e-16   2.529e-16   -15.595   -15.597    -0.002     21.38
N(5)          2.888e-16
   NO3-            2.888e-16   2.872e-16   -15.539   -15.542    -0.002     31.79
O(0)          6.332e-21
   O2              3.166e-21   3.166e-21   -20.499   -20.499     0.000     35.51

------------------------------Saturation indices-------------------------------

  Phase               SI** log IAP   log K(423 K,  92 atm)

  H2(g)           -19.72    -22.69   -2.97  H2
  H2O(g)            0.68     -0.00   -0.68  H2O
  N2(g)             1.96     -1.31   -3.27  N2	 Pressure  92.0 atm, phi 1.000
  NH3(g)          -27.20    -27.13    0.07  NH3
  O2(g)           -17.42    -20.50   -3.08  O2

**For a gas, SI = log10(fugacity). Fugacity = pressure * phi / 1 atm.
  For ideal gases, phi = 1.

Reaction step 3.

Using solution 1.	
Using gas phase 1.	
Using reaction 1.	

Reaction 1.	

	  1.350e+00 moles of the following reaction have been added:

	                 Relative
	Reactant            moles

	N2                   1.00000

	                 Relative
	Element             moles
	N                    2.00000

-----------------------------------Gas phase-----------------------------------

Total pressure: 138.14      atmospheres          (Peng-Robinson calculation)
    Gas volume:   1.00e+00 liters
  Molar volume:   2.51e-01 liters/mole
   P * Vm / RT:  0.99981  (Compressibility Factor Z) 

                                                        Moles in gas
                                            ----------------------------------
Component         log P           P    phi     Initial       Final       Delta

N2(g)              2.14   1.381e+02  1.000   2.651e+00   3.979e+00   1.328e+00

-----------------------------Solution composition------------------------------

	Elements           Molality       Moles

	N                 1.418e-01   1.418e-01

----------------------------Description of solution----------------------------

                                       pH  =   6.946      Charge balance
                                       pe  =   2.794      Adjusted to redox equilibrium
      Specific Conductance (µS/cm, 150°C)  = 11
                          Density (g/cm³)  =   0.92458
                               Volume (L)  =   1.08372
                        Viscosity (mPa s)  =   0.18604
                        Activity of water  =   0.999
                 Ionic strength (mol/kgw)  =   1.191e-05
                       Mass of water (kg)  =   1.000e+00
                 Total alkalinity (eq/kg)  =   2.360e-05
                         Temperature (°C)  = 150.00
                           Pressure (atm)  = 138.14
                  Electrical balance (eq)  =  -2.360e-05
 Percent error, 100*(Cat-|An|)/(Cat+|An|)  = -99.04
                               Iterations  =  21
                                  Total H  = 1.110125e+02
                                  Total O  = 5.550624e+01

----------------------------Distribution of species----------------------------

                                               Log       Log       Log    mole V
   Species          Molality    Activity  Molality  Activity     Gamma   cm³/mol

   OH-             2.371e-05   2.359e-05    -4.625    -4.627    -0.002    -12.37
   H+              1.138e-07   1.132e-07    -6.944    -6.946    -0.002      0.00
   H2O             5.551e+01   9.988e-01     1.744    -0.001     0.000     19.49
H(0)          1.800e-23
   H2              8.998e-24   8.998e-24   -23.046   -23.046     0.000     19.94
N(-3)         3.954e-28
   NH3             2.721e-28   2.721e-28   -27.565   -27.565     0.000     19.65
   NH4+            1.233e-28   1.227e-28   -27.909   -27.911    -0.002     12.45
N(0)          1.418e-01
   N2              7.092e-02   7.092e-02    -1.149    -1.149     0.000     29.29
N(3)          9.911e-16
   NO2-            9.911e-16   9.857e-16   -15.004   -15.006    -0.002     21.48
N(5)          2.497e-15
   NO3-            2.497e-15   2.484e-15   -14.603   -14.605    -0.002     31.72
O(0)          3.055e-20
   O2              1.528e-20   1.528e-20   -19.816   -19.816     0.000     35.31

------------------------------Saturation indices-------------------------------

  Phase               SI** log IAP   log K(423 K, 138 atm)

  H2(g)           -20.06    -23.05   -2.99  H2
  H2O(g)            0.69     -0.00   -0.69  H2O
  N2(g)             2.14     -1.15   -3.29  N2	 Pressure 138.1 atm, phi 1.000
  NH3(g)          -27.62    -27.57    0.06  NH3
  O2(g)           -16.72    -19.82   -3.10  O2

**For a gas, SI = log10(fugacity). Fugacity = pressure * phi / 1 atm.
  For ideal gases, phi = 1.

Reaction step 4.

Using solution 1.	
Using gas phase 1.	
Using reaction 1.	

Reaction 1.	

	  1.350e+00 moles of the following reaction have been added:

	                 Relative
	Reactant            moles

	N2                   1.00000

	                 Relative
	Element             moles
	N                    2.00000

-----------------------------------Gas phase-----------------------------------

Total pressure: 184.30      atmospheres          (Peng-Robinson calculation)
    Gas volume:   1.00e+00 liters
  Molar volume:   1.88e-01 liters/mole
   P * Vm / RT:  0.99974  (Compressibility Factor Z) 

                                                        Moles in gas
                                            ----------------------------------
Component         log P           P    phi     Initial       Final       Delta

N2(g)              2.27   1.843e+02  1.000   3.979e+00   5.309e+00   1.330e+00

-----------------------------Solution composition------------------------------

	Elements           Molality       Moles

	N                 1.820e-01   1.820e-01

----------------------------Description of solution----------------------------

                                       pH  =   6.928      Charge balance
                                       pe  =   2.684      Adjusted to redox equilibrium
      Specific Conductance (µS/cm, 150°C)  = 11
                          Density (g/cm³)  =   0.92710
                               Volume (L)  =   1.08138
                        Viscosity (mPa s)  =   0.18720
                        Activity of water  =   0.998
                 Ionic strength (mol/kgw)  =   1.192e-05
                       Mass of water (kg)  =   1.000e+00
                 Total alkalinity (eq/kg)  =   2.360e-05
                         Temperature (°C)  = 150.00
                           Pressure (atm)  = 184.30
                  Electrical balance (eq)  =  -2.360e-05
 Percent error, 100*(Cat-|An|)/(Cat+|An|)  = -99.00
                               Iterations  =  25
                                  Total H  = 1.110125e+02
                                  Total O  = 5.550624e+01

----------------------------Distribution of species----------------------------

                                               Log       Log       Log    mole V
   Species          Molality    Activity  Molality  Activity     Gamma   cm³/mol

   OH-             2.372e-05   2.359e-05    -4.625    -4.627    -0.002    -12.46
   H+              1.187e-07   1.181e-07    -6.926    -6.928    -0.002      0.00
   H2O             5.551e+01   9.985e-01     1.744    -0.001     0.000     19.43
H(0)          3.167e-23
   H2              1.584e-23   1.584e-23   -22.800   -22.800     0.000     19.82
N(-3)         1.097e-27
   NH3             7.424e-28   7.425e-28   -27.129   -27.129     0.000     19.87
   NH4+            3.542e-28   3.523e-28   -27.451   -27.453    -0.002     12.71
N(0)          1.820e-01
   N2              9.100e-02   9.100e-02    -1.041    -1.041     0.000     29.29
N(3)          4.620e-16
   NO2-            4.620e-16   4.595e-16   -15.335   -15.338    -0.002     21.58
N(5)          6.526e-16
   NO3-            6.526e-16   6.491e-16   -15.185   -15.188    -0.002     31.65
O(0)          9.409e-21
   O2              4.704e-21   4.704e-21   -20.327   -20.327     0.000     35.12

------------------------------Saturation indices-------------------------------

  Phase               SI** log IAP   log K(423 K, 184 atm)

  H2(g)           -19.80    -22.80   -3.00  H2
  H2O(g)            0.70     -0.00   -0.70  H2O
  N2(g)             2.27     -1.04   -3.31  N2	 Pressure 184.3 atm, phi 1.000
  NH3(g)          -27.17    -27.13    0.04  NH3
  O2(g)           -17.21    -20.33   -3.12  O2

**For a gas, SI = log10(fugacity). Fugacity = pressure * phi / 1 atm.
  For ideal gases, phi = 1.

Reaction step 5.

Using solution 1.	
Using gas phase 1.	
Using reaction 1.	

Reaction 1.	

	  1.350e+00 moles of the following reaction have been added:

	                 Relative
	Reactant            moles

	N2                   1.00000

	                 Relative
	Element             moles
	N                    2.00000

-----------------------------------Gas phase-----------------------------------

Total pressure: 230.51      atmospheres          (Peng-Robinson calculation)
    Gas volume:   1.00e+00 liters
  Molar volume:   1.51e-01 liters/mole
   P * Vm / RT:  0.99968  (Compressibility Factor Z) 

                                                        Moles in gas
                                            ----------------------------------
Component         log P           P    phi     Initial       Final       Delta

N2(g)              2.36   2.305e+02  1.000   5.309e+00   6.641e+00   1.332e+00

-----------------------------Solution composition------------------------------

	Elements           Molality       Moles

	N                 2.189e-01   2.189e-01

----------------------------Description of solution----------------------------

                                       pH  =   6.910      Charge balance
                                       pe  =   2.510      Adjusted to redox equilibrium
      Specific Conductance (µS/cm, 150°C)  = 11
                          Density (g/cm³)  =   0.92957
                               Volume (L)  =   1.07906
                        Viscosity (mPa s)  =   0.18835
                        Activity of water  =   0.998
                 Ionic strength (mol/kgw)  =   1.192e-05
                       Mass of water (kg)  =   1.000e+00
                 Total alkalinity (eq/kg)  =   2.360e-05
                         Temperature (°C)  = 150.00
                           Pressure (atm)  = 230.51
                  Electrical balance (eq)  =  -2.360e-05
 Percent error, 100*(Cat-|An|)/(Cat+|An|)  = -98.96
                               Iterations  =  25
                                  Total H  = 1.110125e+02
                                  Total O  = 5.550624e+01

----------------------------Distribution of species----------------------------

                                               Log       Log       Log    mole V
   Species          Molality    Activity  Molality  Activity     Gamma   cm³/mol

   OH-             2.372e-05   2.360e-05    -4.625    -4.627    -0.002    -12.55
   H+              1.238e-07   1.231e-07    -6.907    -6.910    -0.002      0.00
   H2O             5.551e+01   9.981e-01     1.744    -0.001     0.000     19.38
H(0)          7.497e-23
   H2              3.748e-23   3.748e-23   -22.426   -22.426     0.000     19.70
N(-3)         4.590e-27
   NH3             3.055e-27   3.055e-27   -26.515   -26.515     0.000     20.08
   NH4+            1.534e-27   1.526e-27   -26.814   -26.816    -0.002     12.95
N(0)          2.189e-01
   N2              1.095e-01   1.095e-01    -0.961    -0.961     0.000     29.29
N(3)          1.337e-16
   NO2-            1.337e-16   1.330e-16   -15.874   -15.876    -0.002     21.68
N(5)          7.878e-17
   NO3-            7.878e-17   7.836e-17   -16.104   -16.106    -0.002     31.58
O(0)          1.604e-21
   O2              8.018e-22   8.018e-22   -21.096   -21.096     0.000     34.93

------------------------------Saturation indices-------------------------------

  Phase               SI** log IAP   log K(423 K, 231 atm)

  H2(g)           -19.42    -22.43   -3.01  H2
  H2O(g)            0.71     -0.00   -0.71  H2O
  N2(g)             2.36     -0.96   -3.32  N2	 Pressure 230.5 atm, phi 1.000
  NH3(g)          -26.55    -26.51    0.03  NH3
  O2(g)           -17.96    -21.10   -3.14  O2

**For a gas, SI = log10(fugacity). Fugacity = pressure * phi / 1 atm.
  For ideal gases, phi = 1.

Reaction step 6.

Using solution 1.	
Using gas phase 1.	
Using reaction 1.	

Reaction 1.	

	  1.350e+00 moles of the following reaction have been added:

	                 Relative
	Reactant            moles

	N2                   1.00000

	                 Relative
	Element             moles
	N                    2.00000

-----------------------------------Gas phase-----------------------------------

Total pressure: 276.77      atmospheres          (Peng-Robinson calculation)
    Gas volume:   1.00e+00 liters
  Molar volume:   1.25e-01 liters/mole
   P * Vm / RT:  0.99962  (Compressibility Factor Z) 

                                                        Moles in gas
                                            ----------------------------------
Component         log P           P    phi     Initial       Final       Delta

N2(g)              2.44   2.768e+02  1.000   6.641e+00   7.974e+00   1.333e+00

-----------------------------Solution composition------------------------------

	Elements           Molality       Moles

	N                 2.528e-01   2.528e-01

----------------------------Description of solution----------------------------

                                       pH  =   6.891      Charge balance
                                       pe  =   2.565      Adjusted to redox equilibrium
      Specific Conductance (µS/cm, 150°C)  = 11
                          Density (g/cm³)  =   0.93200
                               Volume (L)  =   1.07676
                        Viscosity (mPa s)  =   0.18950
                        Activity of water  =   0.998
                 Ionic strength (mol/kgw)  =   1.193e-05
                       Mass of water (kg)  =   1.000e+00
                 Total alkalinity (eq/kg)  =   2.360e-05
                         Temperature (°C)  = 150.00
                           Pressure (atm)  = 276.77
                  Electrical balance (eq)  =  -2.360e-05
 Percent error, 100*(Cat-|An|)/(Cat+|An|)  = -98.92
                               Iterations  =  28
                                  Total H  = 1.110125e+02
                                  Total O  = 5.550624e+01

----------------------------Distribution of species----------------------------

                                               Log       Log       Log    mole V
   Species          Molality    Activity  Molality  Activity     Gamma   cm³/mol

   OH-             2.373e-05   2.360e-05    -4.625    -4.627    -0.002    -12.64
   H+              1.291e-07   1.285e-07    -6.889    -6.891    -0.002      0.00
   H2O             5.551e+01   9.979e-01     1.744    -0.001     0.000     19.33
H(0)          6.160e-23
   H2              3.080e-23   3.080e-23   -22.511   -22.511     0.000     19.59
N(-3)         3.849e-27
   NH3             2.518e-27   2.518e-27   -26.599   -26.599     0.000     20.29
   NH4+            1.331e-27   1.324e-27   -26.876   -26.878    -0.002     13.19
N(0)          2.528e-01
   N2              1.264e-01   1.264e-01    -0.898    -0.898     0.000     29.29
N(3)          1.853e-16
   NO2-            1.853e-16   1.843e-16   -15.732   -15.735    -0.002     21.77
N(5)          1.313e-16
   NO3-            1.313e-16   1.306e-16   -15.882   -15.884    -0.002     31.51
O(0)          2.269e-21
   O2              1.135e-21   1.135e-21   -20.945   -20.945     0.000     34.75

------------------------------Saturation indices-------------------------------

  Phase               SI** log IAP   log K(423 K, 277 atm)

  H2(g)           -19.49    -22.51   -3.02  H2
  H2O(g)            0.72     -0.00   -0.73  H2O
  N2(g)             2.44     -0.90   -3.34  N2	 Pressure 276.8 atm, phi 1.000
  NH3(g)          -26.62    -26.60    0.02  NH3
  O2(g)           -17.79    -20.95   -3.16  O2

**For a gas, SI = log10(fugacity). Fugacity = pressure * phi / 1 atm.
  For ideal gases, phi = 1.

Reaction step 7.

Using solution 1.	
Using gas phase 1.	
Using reaction 1.	

Reaction 1.	

	  1.350e+00 moles of the following reaction have been added:

	                 Relative
	Reactant            moles

	N2                   1.00000

	                 Relative
	Element             moles
	N                    2.00000

-----------------------------------Gas phase-----------------------------------

Total pressure: 323.07      atmospheres          (Peng-Robinson calculation)
    Gas volume:   1.00e+00 liters
  Molar volume:   1.07e-01 liters/mole
   P * Vm / RT:  0.99956  (Compressibility Factor Z) 

                                                        Moles in gas
                                            ----------------------------------
Component         log P           P    phi     Initial       Final       Delta

N2(g)              2.51   3.231e+02  1.000   7.974e+00   9.308e+00   1.335e+00

-----------------------------Solution composition------------------------------

	Elements           Molality       Moles

	N                 2.837e-01   2.837e-01

----------------------------Description of solution----------------------------

                                       pH  =   6.873      Charge balance
                                       pe  =  -1.222      Adjusted to redox equilibrium
      Specific Conductance (µS/cm, 150°C)  = 11
                          Density (g/cm³)  =   0.93439
                               Volume (L)  =   1.07447
                        Viscosity (mPa s)  =   0.19064
                        Activity of water  =   0.998
                 Ionic strength (mol/kgw)  =   1.194e-05
                       Mass of water (kg)  =   1.000e+00
                 Total alkalinity (eq/kg)  =   2.360e-05
                         Temperature (°C)  = 150.00
                           Pressure (atm)  = 323.07
                  Electrical balance (eq)  =  -2.360e-05
 Percent error, 100*(Cat-|An|)/(Cat+|An|)  = -98.87
                               Iterations  =  26
                                  Total H  = 1.110125e+02
                                  Total O  = 5.550624e+01

----------------------------Distribution of species----------------------------

                                               Log       Log       Log    mole V
   Species          Molality    Activity  Molality  Activity     Gamma   cm³/mol

   OH-             2.374e-05   2.361e-05    -4.625    -4.627    -0.002    -12.73
   H+              1.347e-07   1.340e-07    -6.871    -6.873    -0.002      0.00
   H2O             5.551e+01   9.976e-01     1.744    -0.001     0.000     19.28
H(0)          2.460e-15
   H2              1.230e-15   1.230e-15   -14.910   -14.910     0.000     19.48
N(-3)         1.078e-15
   NH3             6.925e-16   6.925e-16   -15.160   -15.160     0.000     20.48
   NH4+            3.856e-16   3.835e-16   -15.414   -15.416    -0.002     13.42
N(0)          2.837e-01
   N2              1.419e-01   1.419e-01    -0.848    -0.848     0.000     29.29
N(3)          7.470e-28
   NO2-            7.470e-28   7.431e-28   -27.127   -27.129    -0.002     21.86
N(5)          1.310e-35
   NO3-            1.310e-35   1.303e-35   -34.883   -34.885    -0.002     31.44
O(0)          1.361e-36
   O2              6.803e-37   6.803e-37   -36.167   -36.167     0.000     34.57

------------------------------Saturation indices-------------------------------

  Phase               SI** log IAP   log K(423 K, 323 atm)

  H2(g)           -11.88    -14.91   -3.03  H2
  H2O(g)            0.74     -0.00   -0.74  H2O
  N2(g)             2.51     -0.85   -3.36  N2	 Pressure 323.1 atm, phi 1.000
  NH3(g)          -15.17    -15.16    0.01  NH3
  O2(g)           -32.99    -36.17   -3.18  O2

**For a gas, SI = log10(fugacity). Fugacity = pressure * phi / 1 atm.
  For ideal gases, phi = 1.

Reaction step 8.

Using solution 1.	
Using gas phase 1.	
Using reaction 1.	

Reaction 1.	

	  1.350e+00 moles of the following reaction have been added:

	                 Relative
	Reactant            moles

	N2                   1.00000

	                 Relative
	Element             moles
	N                    2.00000

-----------------------------------Gas phase-----------------------------------

Total pressure: 369.41      atmospheres          (Peng-Robinson calculation)
    Gas volume:   1.00e+00 liters
  Molar volume:   9.39e-02 liters/mole
   P * Vm / RT:  0.99950  (Compressibility Factor Z) 

                                                        Moles in gas
                                            ----------------------------------
Component         log P           P    phi     Initial       Final       Delta

N2(g)              2.57   3.694e+02  0.999   9.308e+00   1.064e+01   1.336e+00

-----------------------------Solution composition------------------------------

	Elements           Molality       Moles

	N                 3.120e-01   3.120e-01

----------------------------Description of solution----------------------------

                                       pH  =   6.854      Charge balance
                                       pe  =  -0.860      Adjusted to redox equilibrium
      Specific Conductance (µS/cm, 150°C)  = 11
                          Density (g/cm³)  =   0.93674
                               Volume (L)  =   1.07220
                        Viscosity (mPa s)  =   0.19176
                        Activity of water  =   0.997
                 Ionic strength (mol/kgw)  =   1.194e-05
                       Mass of water (kg)  =   1.000e+00
                 Total alkalinity (eq/kg)  =   2.360e-05
                         Temperature (°C)  = 150.00
                           Pressure (atm)  = 369.41
                  Electrical balance (eq)  =  -2.360e-05
 Percent error, 100*(Cat-|An|)/(Cat+|An|)  = -98.82
                               Iterations  =  28
                                  Total H  = 1.110125e+02
                                  Total O  = 5.550624e+01

----------------------------Distribution of species----------------------------

                                               Log       Log       Log    mole V
   Species          Molality    Activity  Molality  Activity     Gamma   cm³/mol

   OH-             2.374e-05   2.362e-05    -4.624    -4.627    -0.002    -12.82
   H+              1.406e-07   1.399e-07    -6.852    -6.854    -0.002      0.00
   H2O             5.551e+01   9.973e-01     1.744    -0.001     0.000     19.23
H(0)          4.923e-16
   H2              2.461e-16   2.461e-16   -15.609   -15.609     0.000     19.38
N(-3)         1.060e-16
   NH3             6.682e-17   6.682e-17   -16.175   -16.175     0.000     20.67
   NH4+            3.918e-17   3.897e-17   -16.407   -16.409    -0.002     13.64
N(0)          3.120e-01
   N2              1.560e-01   1.560e-01    -0.807    -0.807     0.000     29.29
N(3)          8.402e-27
   NO2-            8.402e-27   8.358e-27   -26.076   -26.078    -0.002     21.95
N(5)          7.282e-34
   NO3-            7.282e-34   7.244e-34   -33.138   -33.140    -0.002     31.38
O(0)          3.251e-35
   O2              1.625e-35   1.625e-35   -34.789   -34.789     0.000     34.41

------------------------------Saturation indices-------------------------------

  Phase               SI** log IAP   log K(423 K, 369 atm)

  H2(g)           -12.57    -15.61   -3.04  H2
  H2O(g)            0.75     -0.00   -0.75  H2O
  N2(g)             2.57     -0.81   -3.37  N2	 Pressure 369.4 atm, phi 0.999
  NH3(g)          -16.17    -16.18   -0.01  NH3
  O2(g)           -31.59    -34.79   -3.20  O2

**For a gas, SI = log10(fugacity). Fugacity = pressure * phi / 1 atm.
  For ideal gases, phi = 1.

Reaction step 9.

Using solution 1.	
Using gas phase 1.	
Using reaction 1.	

Reaction 1.	

	  1.350e+00 moles of the following reaction have been added:

	                 Relative
	Reactant            moles

	N2                   1.00000

	                 Relative
	Element             moles
	N                    2.00000

-----------------------------------Gas phase-----------------------------------

Total pressure: 415.80      atmospheres          (Peng-Robinson calculation)
    Gas volume:   1.00e+00 liters
  Molar volume:   8.35e-02 liters/mole
   P * Vm / RT:  0.99945  (Compressibility Factor Z) 

                                                        Moles in gas
                                            ----------------------------------
Component         log P           P    phi     Initial       Final       Delta

N2(g)              2.62   4.158e+02  0.999   1.064e+01   1.198e+01   1.337e+00

-----------------------------Solution composition------------------------------

	Elements           Molality       Moles

	N                 3.377e-01   3.377e-01

----------------------------Description of solution----------------------------

                                       pH  =   6.836      Charge balance
                                       pe  =  -1.071      Adjusted to redox equilibrium
      Specific Conductance (µS/cm, 150°C)  = 11
                          Density (g/cm³)  =   0.93905
                               Volume (L)  =   1.06994
                        Viscosity (mPa s)  =   0.19289
                        Activity of water  =   0.997
                 Ionic strength (mol/kgw)  =   1.195e-05
                       Mass of water (kg)  =   1.000e+00
                 Total alkalinity (eq/kg)  =   2.360e-05
                         Temperature (°C)  = 150.00
                           Pressure (atm)  = 415.80
                  Electrical balance (eq)  =  -2.360e-05
 Percent error, 100*(Cat-|An|)/(Cat+|An|)  = -98.77
                               Iterations  =  32
                                  Total H  = 1.110125e+02
                                  Total O  = 5.550624e+01

----------------------------Distribution of species----------------------------

                                               Log       Log       Log    mole V
   Species          Molality    Activity  Molality  Activity     Gamma   cm³/mol

   OH-             2.375e-05   2.362e-05    -4.624    -4.627    -0.002    -12.90
   H+              1.467e-07   1.460e-07    -6.833    -6.836    -0.002      0.00
   H2O             5.551e+01   9.971e-01     1.744    -0.001     0.000     19.19
H(0)          1.384e-15
   H2              6.921e-16   6.921e-16   -15.160   -15.160     0.000     19.28
N(-3)         5.446e-16
   NH3             3.367e-16   3.367e-16   -15.473   -15.473     0.000     20.86
   NH4+            2.079e-16   2.068e-16   -15.682   -15.684    -0.002     13.85
N(0)          3.377e-01
   N2              1.688e-01   1.688e-01    -0.773    -0.773     0.000     29.29
N(3)          1.780e-27
   NO2-            1.780e-27   1.770e-27   -26.750   -26.752    -0.002     22.03
N(5)          5.428e-35
   NO3-            5.428e-35   5.399e-35   -34.265   -34.268    -0.002     31.32
O(0)          3.936e-36
   O2              1.968e-36   1.968e-36   -35.706   -35.706     0.000     34.24

------------------------------Saturation indices-------------------------------

  Phase               SI** log IAP   log K(423 K, 416 atm)

  H2(g)           -12.11    -15.16   -3.05  H2
  H2O(g)            0.76     -0.00   -0.76  H2O
  N2(g)             2.62     -0.77   -3.39  N2	 Pressure 415.8 atm, phi 0.999
  NH3(g)          -15.45    -15.47   -0.02  NH3
  O2(g)           -32.49    -35.71   -3.22  O2

**For a gas, SI = log10(fugacity). Fugacity = pressure * phi / 1 atm.
  For ideal gases, phi = 1.

Reaction step 10.

Using solution 1.	
Using gas phase 1.	
Using reaction 1.	

Reaction 1.	

	  1.350e+00 moles of the following reaction have been added:

	                 Relative
	Reactant            moles

	N2                   1.00000

	                 Relative
	Element             moles
	N                    2.00000

-----------------------------------Gas phase-----------------------------------

Total pressure: 462.22      atmospheres          (Peng-Robinson calculation)
    Gas volume:   1.00e+00 liters
  Molar volume:   7.51e-02 liters/mole
   P * Vm / RT:  0.99939  (Compressibility Factor Z) 

                                                        Moles in gas
                                            ----------------------------------
Component         log P           P    phi     Initial       Final       Delta

N2(g)              2.66   4.622e+02  0.999   1.198e+01   1.332e+01   1.338e+00

-----------------------------Solution composition------------------------------

	Elements           Molality       Moles

	N                 3.609e-01   3.609e-01

----------------------------Description of solution----------------------------

                                       pH  =   6.817      Charge balance
                                       pe  =  -1.124      Adjusted to redox equilibrium
      Specific Conductance (µS/cm, 150°C)  = 11
                          Density (g/cm³)  =   0.94133
                               Volume (L)  =   1.06770
                        Viscosity (mPa s)  =   0.19400
                        Activity of water  =   0.997
                 Ionic strength (mol/kgw)  =   1.195e-05
                       Mass of water (kg)  =   1.000e+00
                 Total alkalinity (eq/kg)  =   2.360e-05
                         Temperature (°C)  = 150.00
                           Pressure (atm)  = 462.22
                  Electrical balance (eq)  =  -2.360e-05
 Percent error, 100*(Cat-|An|)/(Cat+|An|)  = -98.72
                               Iterations  =  33
                                  Total H  = 1.110125e+02
                                  Total O  = 5.550624e+01

----------------------------Distribution of species----------------------------

                                               Log       Log       Log    mole V
   Species          Molality    Activity  Molality  Activity     Gamma   cm³/mol

   OH-             2.375e-05   2.363e-05    -4.624    -4.627    -0.002    -12.99
   H+              1.532e-07   1.524e-07    -6.815    -6.817    -0.002      0.00
   H2O             5.551e+01   9.969e-01     1.744    -0.001     0.000     19.14
H(0)          1.879e-15
   H2              9.394e-16   9.394e-16   -15.027   -15.027     0.000     19.18
N(-3)         9.326e-16
   NH3             5.650e-16   5.650e-16   -15.248   -15.248     0.000     21.03
   NH4+            3.675e-16   3.656e-16   -15.435   -15.437    -0.002     14.05
N(0)          3.609e-01
   N2              1.805e-01   1.805e-01    -0.744    -0.744     0.000     29.29
N(3)          1.117e-27
   NO2-            1.117e-27   1.111e-27   -26.952   -26.954    -0.002     22.11
N(5)          2.484e-35
   NO3-            2.484e-35   2.471e-35   -34.605   -34.607    -0.002     31.25
O(0)          2.046e-36
   O2              1.023e-36   1.023e-36   -35.990   -35.990     0.000     34.08

------------------------------Saturation indices-------------------------------

  Phase               SI** log IAP   log K(423 K, 462 atm)

  H2(g)           -11.96    -15.03   -3.06  H2
  H2O(g)            0.77     -0.00   -0.77  H2O
  N2(g)             2.66     -0.74   -3.41  N2	 Pressure 462.2 atm, phi 0.999
  NH3(g)          -15.22    -15.25   -0.03  NH3
  O2(g)           -32.75    -35.99   -3.24  O2

**For a gas, SI = log10(fugacity). Fugacity = pressure * phi / 1 atm.
  For ideal gases, phi = 1.

Reaction step 11.

Using solution 1.	
Using gas phase 1.	
Using reaction 1.	

Reaction 1.	

	  1.350e+00 moles of the following reaction have been added:

	                 Relative
	Reactant            moles

	N2                   1.00000

	                 Relative
	Element             moles
	N                    2.00000

-----------------------------------Gas phase-----------------------------------

Total pressure: 508.68      atmospheres          (Peng-Robinson calculation)
    Gas volume:   1.00e+00 liters
  Molar volume:   6.82e-02 liters/mole
   P * Vm / RT:  0.99933  (Compressibility Factor Z) 

                                                        Moles in gas
                                            ----------------------------------
Component         log P           P    phi     Initial       Final       Delta

N2(g)              2.71   5.087e+02  0.999   1.332e+01   1.466e+01   1.340e+00

-----------------------------Solution composition------------------------------

	Elements           Molality       Moles

	N                 3.819e-01   3.819e-01

----------------------------Description of solution----------------------------

                                       pH  =   6.798      Charge balance
                                       pe  =  -1.120      Adjusted to redox equilibrium
      Specific Conductance (µS/cm, 150°C)  = 11
                          Density (g/cm³)  =   0.94357
                               Volume (L)  =   1.06548
                        Viscosity (mPa s)  =   0.19511
                        Activity of water  =   0.997
                 Ionic strength (mol/kgw)  =   1.196e-05
                       Mass of water (kg)  =   1.000e+00
                 Total alkalinity (eq/kg)  =   2.360e-05
                         Temperature (°C)  = 150.00
                           Pressure (atm)  = 508.68
                  Electrical balance (eq)  =  -2.360e-05
 Percent error, 100*(Cat-|An|)/(Cat+|An|)  = -98.66
                               Iterations  =  32
                                  Total H  = 1.110125e+02
                                  Total O  = 5.550624e+01

----------------------------Distribution of species----------------------------

                                               Log       Log       Log    mole V
   Species          Molality    Activity  Molality  Activity     Gamma   cm³/mol

   OH-             2.376e-05   2.364e-05    -4.624    -4.626    -0.002    -13.07
   H+              1.599e-07   1.591e-07    -6.796    -6.798    -0.002      0.00
   H2O             5.551e+01   9.968e-01     1.744    -0.001     0.000     19.09
H(0)          1.956e-15
   H2              9.779e-16   9.779e-16   -15.010   -15.010     0.000     19.09
N(-3)         1.067e-15
   NH3             6.332e-16   6.332e-16   -15.198   -15.198     0.000     21.20
   NH4+            4.339e-16   4.316e-16   -15.363   -15.365    -0.002     14.25
N(0)          3.819e-01
   N2              1.910e-01   1.910e-01    -0.719    -0.719     0.000     29.29
N(3)          1.038e-27
   NO2-            1.038e-27   1.033e-27   -26.984   -26.986    -0.002     22.18
N(5)          2.196e-35
   NO3-            2.196e-35   2.185e-35   -34.658   -34.661    -0.002     31.19
O(0)          1.810e-36
   O2              9.050e-37   9.051e-37   -36.043   -36.043     0.000     33.93

------------------------------Saturation indices-------------------------------

  Phase               SI** log IAP   log K(423 K, 509 atm)

  H2(g)           -11.94    -15.01   -3.07  H2
  H2O(g)            0.78     -0.00   -0.78  H2O
  N2(g)             2.71     -0.72   -3.43  N2	 Pressure 508.7 atm, phi 0.999
  NH3(g)          -15.15    -15.20   -0.05  NH3
  O2(g)           -32.79    -36.04   -3.25  O2

**For a gas, SI = log10(fugacity). Fugacity = pressure * phi / 1 atm.
  For ideal gases, phi = 1.

Reaction step 12.

Using solution 1.	
Using gas phase 1.	
Using reaction 1.	

Reaction 1.	

	  1.350e+00 moles of the following reaction have been added:

	                 Relative
	Reactant            moles

	N2                   1.00000

	                 Relative
	Element             moles
	N                    2.00000

-----------------------------------Gas phase-----------------------------------

Total pressure: 555.16      atmospheres          (Peng-Robinson calculation)
    Gas volume:   1.00e+00 liters
  Molar volume:   6.25e-02 liters/mole
   P * Vm / RT:  0.99928  (Compressibility Factor Z) 

                                                        Moles in gas
                                            ----------------------------------
Component         log P           P    phi     Initial       Final       Delta

N2(g)              2.74   5.552e+02  0.999   1.466e+01   1.600e+01   1.341e+00

-----------------------------Solution composition------------------------------

	Elements           Molality       Moles

	N                 4.008e-01   4.008e-01

----------------------------Description of solution----------------------------

                                       pH  =   6.780      Charge balance
                                       pe  =  -1.107      Adjusted to redox equilibrium
      Specific Conductance (µS/cm, 150°C)  = 11
                          Density (g/cm³)  =   0.94578
                               Volume (L)  =   1.06327
                        Viscosity (mPa s)  =   0.19622
                        Activity of water  =   0.997
                 Ionic strength (mol/kgw)  =   1.197e-05
                       Mass of water (kg)  =   1.000e+00
                 Total alkalinity (eq/kg)  =   2.360e-05
                         Temperature (°C)  = 150.00
                           Pressure (atm)  = 555.16
                  Electrical balance (eq)  =  -2.360e-05
 Percent error, 100*(Cat-|An|)/(Cat+|An|)  = -98.60
                               Iterations  =  32
                                  Total H  = 1.110125e+02
                                  Total O  = 5.550624e+01

----------------------------Distribution of species----------------------------

                                               Log       Log       Log    mole V
   Species          Molality    Activity  Molality  Activity     Gamma   cm³/mol

   OH-             2.377e-05   2.364e-05    -4.624    -4.626    -0.002    -13.16
   H+              1.670e-07   1.661e-07    -6.777    -6.780    -0.002      0.00
   H2O             5.551e+01   9.966e-01     1.744    -0.001     0.000     19.05
H(0)          1.967e-15
   H2              9.837e-16   9.837e-16   -15.007   -15.007     0.000     19.00
N(-3)         1.155e-15
   NH3             6.708e-16   6.708e-16   -15.173   -15.173     0.000     21.37
   NH4+            4.842e-16   4.817e-16   -15.315   -15.317    -0.002     14.43
N(0)          4.008e-01
   N2              2.004e-01   2.004e-01    -0.698    -0.698     0.000     29.29
N(3)          1.012e-27
   NO2-            1.012e-27   1.006e-27   -26.995   -26.997    -0.002     22.25
N(5)          2.107e-35
   NO3-            2.107e-35   2.096e-35   -34.676   -34.679    -0.002     31.14
O(0)          1.715e-36
   O2              8.577e-37   8.577e-37   -36.067   -36.067     0.000     33.78

------------------------------Saturation indices-------------------------------

  Phase               SI** log IAP   log K(423 K, 555 atm)

  H2(g)           -11.92    -15.01   -3.08  H2
  H2O(g)            0.79     -0.00   -0.79  H2O
  N2(g)             2.74     -0.70   -3.44  N2	 Pressure 555.2 atm, phi 0.999
  NH3(g)          -15.11    -15.17   -0.06  NH3
  O2(g)           -32.79    -36.07   -3.27  O2

**For a gas, SI = log10(fugacity). Fugacity = pressure * phi / 1 atm.
  For ideal gases, phi = 1.

Reaction step 13.

Using solution 1.	
Using gas phase 1.	
Using reaction 1.	

Reaction 1.	

	  1.350e+00 moles of the following reaction have been added:

	                 Relative
	Reactant            moles

	N2                   1.00000

	                 Relative
	Element             moles
	N                    2.00000

-----------------------------------Gas phase-----------------------------------

Total pressure: 601.68      atmospheres          (Peng-Robinson calculation)
    Gas volume:   1.00e+00 liters
  Molar volume:   5.77e-02 liters/mole
   P * Vm / RT:  0.99923  (Compressibility Factor Z) 

                                                        Moles in gas
                                            ----------------------------------
Component         log P           P    phi     Initial       Final       Delta

N2(g)              2.78   6.017e+02  0.999   1.600e+01   1.734e+01   1.342e+00

-----------------------------Solution composition------------------------------

	Elements           Molality       Moles

	N                 4.176e-01   4.176e-01

----------------------------Description of solution----------------------------

                                       pH  =   6.761      Charge balance
                                       pe  =   2.694      Adjusted to redox equilibrium
      Specific Conductance (µS/cm, 150°C)  = 11
                          Density (g/cm³)  =   0.94796
                               Volume (L)  =   1.06107
                        Viscosity (mPa s)  =   0.19731
                        Activity of water  =   0.996
                 Ionic strength (mol/kgw)  =   1.197e-05
                       Mass of water (kg)  =   1.000e+00
                 Total alkalinity (eq/kg)  =   2.360e-05
                         Temperature (°C)  = 150.00
                           Pressure (atm)  = 601.68
                  Electrical balance (eq)  =  -2.360e-05
 Percent error, 100*(Cat-|An|)/(Cat+|An|)  = -98.54
                               Iterations  =  33
                                  Total H  = 1.110125e+02
                                  Total O  = 5.550624e+01

----------------------------Distribution of species----------------------------

                                               Log       Log       Log    mole V
   Species          Molality    Activity  Molality  Activity     Gamma   cm³/mol

   OH-             2.377e-05   2.365e-05    -4.624    -4.626    -0.002    -13.24
   H+              1.744e-07   1.735e-07    -6.759    -6.761    -0.002      0.00
   H2O             5.551e+01   9.964e-01     1.744    -0.002     0.000     19.01
H(0)          5.232e-23
   H2              2.616e-23   2.616e-23   -22.582   -22.582     0.000     18.91
N(-3)         5.356e-27
   NH3             3.042e-27   3.042e-27   -26.517   -26.517     0.000     21.53
   NH4+            2.314e-27   2.302e-27   -26.636   -26.638    -0.002     14.62
N(0)          4.176e-01
   N2              2.088e-01   2.088e-01    -0.680    -0.680     0.000     29.29
N(3)          2.285e-16
   NO2-            2.285e-16   2.273e-16   -15.641   -15.643    -0.002     22.32
N(5)          1.774e-16
   NO3-            1.774e-16   1.765e-16   -15.751   -15.753    -0.002     31.08
O(0)          2.327e-21
   O2              1.164e-21   1.164e-21   -20.934   -20.934     0.000     33.64

------------------------------Saturation indices-------------------------------

  Phase               SI** log IAP   log K(423 K, 602 atm)

  H2(g)           -19.49    -22.58   -3.09  H2
  H2O(g)            0.80     -0.00   -0.80  H2O
  N2(g)             2.78     -0.68   -3.46  N2	 Pressure 601.7 atm, phi 0.999
  NH3(g)          -26.44    -26.52   -0.07  NH3
  O2(g)           -17.64    -20.93   -3.29  O2

**For a gas, SI = log10(fugacity). Fugacity = pressure * phi / 1 atm.
  For ideal gases, phi = 1.

Reaction step 14.

Using solution 1.	
Using gas phase 1.	
Using reaction 1.	

Reaction 1.	

	  1.350e+00 moles of the following reaction have been added:

	                 Relative
	Reactant            moles

	N2                   1.00000

	                 Relative
	Element             moles
	N                    2.00000

-----------------------------------Gas phase-----------------------------------

Total pressure: 648.23      atmospheres          (Peng-Robinson calculation)
    Gas volume:   1.00e+00 liters
  Molar volume:   5.35e-02 liters/mole
   P * Vm / RT:  0.99918  (Compressibility Factor Z) 

                                                        Moles in gas
                                            ----------------------------------
Component         log P           P    phi     Initial       Final       Delta

N2(g)              2.81   6.482e+02  0.999   1.734e+01   1.868e+01   1.343e+00

-----------------------------Solution composition------------------------------

	Elements           Molality       Moles

	N                 4.326e-01   4.326e-01

----------------------------Description of solution----------------------------

                                       pH  =   6.742      Charge balance
                                       pe  =  -1.068      Adjusted to redox equilibrium
      Specific Conductance (µS/cm, 150°C)  = 11
                          Density (g/cm³)  =   0.95010
                               Volume (L)  =   1.05890
                        Viscosity (mPa s)  =   0.19841
                        Activity of water  =   0.996
                 Ionic strength (mol/kgw)  =   1.198e-05
                       Mass of water (kg)  =   1.000e+00
                 Total alkalinity (eq/kg)  =   2.360e-05
                         Temperature (°C)  = 150.00
                           Pressure (atm)  = 648.23
                  Electrical balance (eq)  =  -2.360e-05
 Percent error, 100*(Cat-|An|)/(Cat+|An|)  = -98.48
                               Iterations  =  29
                                  Total H  = 1.110125e+02
                                  Total O  = 5.550624e+01

----------------------------Distribution of species----------------------------

                                               Log       Log       Log    mole V
   Species          Molality    Activity  Molality  Activity     Gamma   cm³/mol

   OH-             2.378e-05   2.366e-05    -4.624    -4.626    -0.002    -13.32
   H+              1.821e-07   1.812e-07    -6.740    -6.742    -0.002      0.00
   H2O             5.551e+01   9.963e-01     1.744    -0.002     0.000     18.96
H(0)          1.861e-15
   H2              9.307e-16   9.307e-16   -15.031   -15.031     0.000     18.82
N(-3)         1.212e-15
   NH3             6.727e-16   6.727e-16   -15.172   -15.172     0.000     21.68
   NH4+            5.391e-16   5.363e-16   -15.268   -15.271    -0.002     14.79
N(0)          4.326e-01
   N2              2.163e-01   2.163e-01    -0.665    -0.665     0.000     29.29
N(3)          1.051e-27
   NO2-            1.051e-27   1.046e-27   -26.978   -26.981    -0.002     22.39
N(5)          2.274e-35
   NO3-            2.274e-35   2.262e-35   -34.643   -34.645    -0.002     31.02
O(0)          1.765e-36
   O2              8.825e-37   8.825e-37   -36.054   -36.054     0.000     33.50

------------------------------Saturation indices-------------------------------

  Phase               SI** log IAP   log K(423 K, 648 atm)

  H2(g)           -11.93    -15.03   -3.10  H2
  H2O(g)            0.81     -0.00   -0.81  H2O
  N2(g)             2.81     -0.66   -3.48  N2	 Pressure 648.2 atm, phi 0.999
  NH3(g)          -15.09    -15.17   -0.09  NH3
  O2(g)           -32.74    -36.05   -3.31  O2

**For a gas, SI = log10(fugacity). Fugacity = pressure * phi / 1 atm.
  For ideal gases, phi = 1.

Reaction step 15.

Using solution 1.	
Using gas phase 1.	
Using reaction 1.	

Reaction 1.	

	  1.350e+00 moles of the following reaction have been added:

	                 Relative
	Reactant            moles

	N2                   1.00000

	                 Relative
	Element             moles
	N                    2.00000

-----------------------------------Gas phase-----------------------------------

Total pressure: 694.81      atmospheres          (Peng-Robinson calculation)
    Gas volume:   1.00e+00 liters
  Molar volume:   4.99e-02 liters/mole
   P * Vm / RT:  0.99913  (Compressibility Factor Z) 

                                                        Moles in gas
                                            ----------------------------------
Component         log P           P    phi     Initial       Final       Delta

N2(g)              2.84   6.948e+02  0.999   1.868e+01   2.003e+01   1.343e+00

-----------------------------Solution composition------------------------------

	Elements           Molality       Moles

	N                 4.458e-01   4.458e-01

----------------------------Description of solution----------------------------

                                       pH  =   6.723      Charge balance
                                       pe  =  -0.806      Adjusted to redox equilibrium
      Specific Conductance (µS/cm, 150°C)  = 11
                          Density (g/cm³)  =   0.95222
                               Volume (L)  =   1.05674
                        Viscosity (mPa s)  =   0.19949
                        Activity of water  =   0.996
                 Ionic strength (mol/kgw)  =   1.199e-05
                       Mass of water (kg)  =   1.000e+00
                 Total alkalinity (eq/kg)  =   2.360e-05
                         Temperature (°C)  = 150.00
                           Pressure (atm)  = 694.81
                  Electrical balance (eq)  =  -2.360e-05
 Percent error, 100*(Cat-|An|)/(Cat+|An|)  = -98.41
                               Iterations  =  56
                                  Total H  = 1.110125e+02
                                  Total O  = 5.550624e+01

----------------------------Distribution of species----------------------------

                                               Log       Log       Log    mole V
   Species          Molality    Activity  Molality  Activity     Gamma   cm³/mol

   OH-             2.379e-05   2.367e-05    -4.624    -4.626    -0.002    -13.40
   H+              1.902e-07   1.893e-07    -6.721    -6.723    -0.002      0.00
   H2O             5.551e+01   9.962e-01     1.744    -0.002     0.000     18.92
H(0)          5.945e-16
   H2              2.972e-16   2.972e-16   -15.527   -15.527     0.000     18.74
N(-3)         2.326e-16
   NH3             1.261e-16   1.261e-16   -15.899   -15.899     0.000     21.83
   NH4+            1.065e-16   1.059e-16   -15.973   -15.975    -0.002     14.96
N(0)          4.458e-01
   N2              2.229e-01   2.229e-01    -0.652    -0.652     0.000     29.29
N(3)          5.670e-27
   NO2-            5.670e-27   5.641e-27   -26.246   -26.249    -0.002     22.45
N(5)          3.809e-34
   NO3-            3.809e-34   3.789e-34   -33.419   -33.421    -0.002     30.97
O(0)          1.662e-35
   O2              8.309e-36   8.309e-36   -35.080   -35.080     0.000     33.36

------------------------------Saturation indices-------------------------------

  Phase               SI** log IAP   log K(423 K, 695 atm)

  H2(g)           -12.41    -15.53   -3.11  H2
  H2O(g)            0.82     -0.00   -0.82  H2O
  N2(g)             2.84     -0.65   -3.49  N2	 Pressure 694.8 atm, phi 0.999
  NH3(g)          -15.80    -15.90   -0.10  NH3
  O2(g)           -31.75    -35.08   -3.33  O2

**For a gas, SI = log10(fugacity). Fugacity = pressure * phi / 1 atm.
  For ideal gases, phi = 1.

Reaction step 16.

Using solution 1.	
Using gas phase 1.	
Using reaction 1.	

Reaction 1.	

	  1.350e+00 moles of the following reaction have been added:

	                 Relative
	Reactant            moles

	N2                   1.00000

	                 Relative
	Element             moles
	N                    2.00000

-----------------------------------Gas phase-----------------------------------

Total pressure: 741.40      atmospheres          (Peng-Robinson calculation)
    Gas volume:   1.00e+00 liters
  Molar volume:   4.68e-02 liters/mole
   P * Vm / RT:  0.99908  (Compressibility Factor Z) 

                                                        Moles in gas
                                            ----------------------------------
Component         log P           P    phi     Initial       Final       Delta

N2(g)              2.87   7.414e+02  0.999   2.003e+01   2.137e+01   1.344e+00

-----------------------------Solution composition------------------------------

	Elements           Molality       Moles

	N                 4.573e-01   4.573e-01

----------------------------Description of solution----------------------------

                                       pH  =   6.704      Charge balance
                                       pe  =   2.966      Adjusted to redox equilibrium
      Specific Conductance (µS/cm, 150°C)  = 11
                          Density (g/cm³)  =   0.95431
                               Volume (L)  =   1.05459
                        Viscosity (mPa s)  =   0.20058
                        Activity of water  =   0.996
                 Ionic strength (mol/kgw)  =   1.200e-05
                       Mass of water (kg)  =   1.000e+00
                 Total alkalinity (eq/kg)  =   2.360e-05
                         Temperature (°C)  = 150.00
                           Pressure (atm)  = 741.40
                  Electrical balance (eq)  =  -2.360e-05
 Percent error, 100*(Cat-|An|)/(Cat+|An|)  = -98.34
                               Iterations  =  56
                                  Total H  = 1.110125e+02
                                  Total O  = 5.550624e+01

----------------------------Distribution of species----------------------------

                                               Log       Log       Log    mole V
   Species          Molality    Activity  Molality  Activity     Gamma   cm³/mol

   OH-             2.380e-05   2.368e-05    -4.623    -4.626    -0.002    -13.48
   H+              1.987e-07   1.977e-07    -6.702    -6.704    -0.002      0.00
   H2O             5.551e+01   9.961e-01     1.744    -0.002     0.000     18.88
H(0)          1.806e-23
   H2              9.028e-24   9.028e-24   -23.044   -23.044     0.000     18.66
N(-3)         1.307e-27
   NH3             6.915e-28   6.915e-28   -27.160   -27.160     0.000     21.97
   NH4+            6.154e-28   6.123e-28   -27.211   -27.213    -0.002     15.13
N(0)          4.573e-01
   N2              2.287e-01   2.287e-01    -0.641    -0.641     0.000     29.29
N(3)          1.041e-15
   NO2-            1.041e-15   1.035e-15   -14.983   -14.985    -0.002     22.51
N(5)          2.283e-15
   NO3-            2.283e-15   2.271e-15   -14.642   -14.644    -0.002     30.92
O(0)          1.731e-20
   O2              8.653e-21   8.653e-21   -20.063   -20.063     0.000     33.23

------------------------------Saturation indices-------------------------------

  Phase               SI** log IAP   log K(423 K, 741 atm)

  H2(g)           -19.92    -23.04   -3.12  H2
  H2O(g)            0.83     -0.00   -0.83  H2O
  N2(g)             2.87     -0.64   -3.51  N2	 Pressure 741.4 atm, phi 0.999
  NH3(g)          -27.05    -27.16   -0.11  NH3
  O2(g)           -16.72    -20.06   -3.35  O2

**For a gas, SI = log10(fugacity). Fugacity = pressure * phi / 1 atm.
  For ideal gases, phi = 1.

Reaction step 17.

Using solution 1.	
Using gas phase 1.	
Using reaction 1.	

Reaction 1.	

	  1.350e+00 moles of the following reaction have been added:

	                 Relative
	Reactant            moles

	N2                   1.00000

	                 Relative
	Element             moles
	N                    2.00000

-----------------------------------Gas phase-----------------------------------

Total pressure: 788.03      atmospheres          (Peng-Robinson calculation)
    Gas volume:   1.00e+00 liters
  Molar volume:   4.40e-02 liters/mole
   P * Vm / RT:  0.99903  (Compressibility Factor Z) 

                                                        Moles in gas
                                            ----------------------------------
Component         log P           P    phi     Initial       Final       Delta

N2(g)              2.90   7.880e+02  0.999   2.137e+01   2.272e+01   1.345e+00

-----------------------------Solution composition------------------------------

	Elements           Molality       Moles

	N                 4.673e-01   4.673e-01

----------------------------Description of solution----------------------------

                                       pH  =   6.685      Charge balance
                                       pe  =  -0.873      Adjusted to redox equilibrium
      Specific Conductance (µS/cm, 150°C)  = 11
                          Density (g/cm³)  =   0.95637
                               Volume (L)  =   1.05246
                        Viscosity (mPa s)  =   0.20165
                        Activity of water  =   0.996
                 Ionic strength (mol/kgw)  =   1.201e-05
                       Mass of water (kg)  =   1.000e+00
                 Total alkalinity (eq/kg)  =   2.360e-05
                         Temperature (°C)  = 150.00
                           Pressure (atm)  = 788.03
                  Electrical balance (eq)  =  -2.360e-05
 Percent error, 100*(Cat-|An|)/(Cat+|An|)  = -98.27
                               Iterations  =  54
                                  Total H  = 1.110125e+02
                                  Total O  = 5.550624e+01

----------------------------Distribution of species----------------------------

                                               Log       Log       Log    mole V
   Species          Molality    Activity  Molality  Activity     Gamma   cm³/mol

   OH-             2.381e-05   2.369e-05    -4.623    -4.625    -0.002    -13.56
   H+              2.076e-07   2.066e-07    -6.683    -6.685    -0.002      0.00
   H2O             5.551e+01   9.960e-01     1.744    -0.002     0.000     18.84
H(0)          9.174e-16
   H2              4.587e-16   4.587e-16   -15.338   -15.338     0.000     18.58
N(-3)         5.015e-16
   NH3             2.588e-16   2.588e-16   -15.587   -15.587     0.000     22.11
   NH4+            2.427e-16   2.415e-16   -15.615   -15.617    -0.002     15.29
N(0)          4.673e-01
   N2              2.336e-01   2.337e-01    -0.631    -0.631     0.000     29.29
N(3)          2.785e-27
   NO2-            2.785e-27   2.771e-27   -26.555   -26.557    -0.002     22.57
N(5)          1.193e-34
   NO3-            1.193e-34   1.187e-34   -33.923   -33.926    -0.002     30.86
O(0)          6.443e-36
   O2              3.222e-36   3.222e-36   -35.492   -35.492     0.000     33.10

------------------------------Saturation indices-------------------------------

  Phase               SI** log IAP   log K(423 K, 788 atm)

  H2(g)           -12.20    -15.34   -3.13  H2
  H2O(g)            0.84     -0.00   -0.84  H2O
  N2(g)             2.90     -0.63   -3.53  N2	 Pressure 788.0 atm, phi 0.999
  NH3(g)          -15.46    -15.59   -0.13  NH3
  O2(g)           -32.13    -35.49   -3.37  O2

**For a gas, SI = log10(fugacity). Fugacity = pressure * phi / 1 atm.
  For ideal gases, phi = 1.

Reaction step 18.

Using solution 1.	
Using gas phase 1.	
Using reaction 1.	

Reaction 1.	

	  1.350e+00 moles of the following reaction have been added:

	                 Relative
	Reactant            moles

	N2                   1.00000

	                 Relative
	Element             moles
	N                    2.00000

-----------------------------------Gas phase-----------------------------------

Total pressure: 834.67      atmospheres          (Peng-Robinson calculation)
    Gas volume:   1.00e+00 liters
  Molar volume:   4.16e-02 liters/mole
   P * Vm / RT:  0.99898  (Compressibility Factor Z) 

                                                        Moles in gas
                                            ----------------------------------
Component         log P           P    phi     Initial       Final       Delta

N2(g)              2.92   8.347e+02  0.999   2.272e+01   2.406e+01   1.346e+00

-----------------------------Solution composition------------------------------

	Elements           Molality       Moles

	N                 4.758e-01   4.758e-01

----------------------------Description of solution----------------------------

                                       pH  =   6.666      Charge balance
                                       pe  =  -0.886      Adjusted to redox equilibrium
      Specific Conductance (µS/cm, 150°C)  = 11
                          Density (g/cm³)  =   0.95841
                               Volume (L)  =   1.05035
                        Viscosity (mPa s)  =   0.20273
                        Activity of water  =   0.996
                 Ionic strength (mol/kgw)  =   1.202e-05
                       Mass of water (kg)  =   1.000e+00
                 Total alkalinity (eq/kg)  =   2.360e-05
                         Temperature (°C)  = 150.00
                           Pressure (atm)  = 834.67
                  Electrical balance (eq)  =  -2.360e-05
 Percent error, 100*(Cat-|An|)/(Cat+|An|)  = -98.19
                               Iterations  =  53
                                  Total H  = 1.110125e+02
                                  Total O  = 5.550624e+01

----------------------------Distribution of species----------------------------

                                               Log       Log       Log    mole V
   Species          Molality    Activity  Molality  Activity     Gamma   cm³/mol

   OH-             2.382e-05   2.370e-05    -4.623    -4.625    -0.002    -13.64
   H+              2.170e-07   2.159e-07    -6.664    -6.666    -0.002      0.00
   H2O             5.551e+01   9.960e-01     1.744    -0.002     0.000     18.80
H(0)          1.043e-15
   H2              5.217e-16   5.217e-16   -15.283   -15.283     0.000     18.51
N(-3)         6.435e-16
   NH3             3.236e-16   3.236e-16   -15.490   -15.490     0.000     22.24
   NH4+            3.199e-16   3.183e-16   -15.495   -15.497    -0.002     15.44
N(0)          4.758e-01
   N2              2.379e-01   2.379e-01    -0.624    -0.624     0.000     29.29
N(3)          2.221e-27
   NO2-            2.221e-27   2.210e-27   -26.653   -26.656    -0.002     22.62
N(5)          8.306e-35
   NO3-            8.306e-35   8.264e-35   -34.081   -34.083    -0.002     30.81
O(0)          4.790e-36
   O2              2.395e-36   2.395e-36   -35.621   -35.621     0.000     32.98

------------------------------Saturation indices-------------------------------

  Phase               SI** log IAP   log K(423 K, 835 atm)

  H2(g)           -12.14    -15.28   -3.15  H2
  H2O(g)            0.85     -0.00   -0.85  H2O
  N2(g)             2.92     -0.62   -3.54  N2	 Pressure 834.7 atm, phi 0.999
  NH3(g)          -15.35    -15.49   -0.14  NH3
  O2(g)           -32.24    -35.62   -3.38  O2

**For a gas, SI = log10(fugacity). Fugacity = pressure * phi / 1 atm.
  For ideal gases, phi = 1.

Reaction step 19.

Using solution 1.	
Using gas phase 1.	
Using reaction 1.	

Reaction 1.	

	  1.350e+00 moles of the following reaction have been added:

	                 Relative
	Reactant            moles

	N2                   1.00000

	                 Relative
	Element             moles
	N                    2.00000

-----------------------------------Gas phase-----------------------------------

Total pressure: 881.34      atmospheres          (Peng-Robinson calculation)
    Gas volume:   1.00e+00 liters
  Molar volume:   3.94e-02 liters/mole
   P * Vm / RT:  0.99894  (Compressibility Factor Z) 

                                                        Moles in gas
                                            ----------------------------------
Component         log P           P    phi     Initial       Final       Delta

N2(g)              2.95   8.813e+02  0.999   2.406e+01   2.541e+01   1.346e+00

-----------------------------Solution composition------------------------------

	Elements           Molality       Moles

	N                 4.830e-01   4.830e-01

----------------------------Description of solution----------------------------

                                       pH  =   6.647      Charge balance
                                       pe  =  -0.937      Adjusted to redox equilibrium
      Specific Conductance (µS/cm, 150°C)  = 11
                          Density (g/cm³)  =   0.96041
                               Volume (L)  =   1.04826
                        Viscosity (mPa s)  =   0.20380
                        Activity of water  =   0.996
                 Ionic strength (mol/kgw)  =   1.203e-05
                       Mass of water (kg)  =   1.000e+00
                 Total alkalinity (eq/kg)  =   2.360e-05
                         Temperature (°C)  = 150.00
                           Pressure (atm)  = 881.34
                  Electrical balance (eq)  =  -2.360e-05
 Percent error, 100*(Cat-|An|)/(Cat+|An|)  = -98.11
                               Iterations  =  52
                                  Total H  = 1.110125e+02
                                  Total O  = 5.550624e+01

----------------------------Distribution of species----------------------------

                                               Log       Log       Log    mole V
   Species          Molality    Activity  Molality  Activity     Gamma   cm³/mol

   OH-             2.383e-05   2.371e-05    -4.623    -4.625    -0.002    -13.71
   H+              2.267e-07   2.256e-07    -6.645    -6.647    -0.002      0.00
   H2O             5.551e+01   9.959e-01     1.744    -0.002     0.000     18.76
H(0)          1.408e-15
   H2              7.039e-16   7.039e-16   -15.153   -15.153     0.000     18.44
N(-3)         1.066e-15
   NH4+            5.438e-16   5.410e-16   -15.265   -15.267    -0.002     15.59
   NH3             5.219e-16   5.219e-16   -15.282   -15.282     0.000     22.37
N(0)          4.830e-01
   N2              2.415e-01   2.415e-01    -0.617    -0.617     0.000     29.29
N(3)          1.369e-27
   NO2-            1.369e-27   1.362e-27   -26.864   -26.866    -0.002     22.68
N(5)          3.766e-35
   NO3-            3.766e-35   3.747e-35   -34.424   -34.426    -0.002     30.76
O(0)          2.531e-36
   O2              1.265e-36   1.265e-36   -35.898   -35.898     0.000     32.86

------------------------------Saturation indices-------------------------------

  Phase               SI** log IAP   log K(423 K, 881 atm)

  H2(g)           -12.00    -15.15   -3.16  H2
  H2O(g)            0.86     -0.00   -0.87  H2O
  N2(g)             2.94     -0.62   -3.56  N2	 Pressure 881.3 atm, phi 0.999
  NH3(g)          -15.13    -15.28   -0.16  NH3
  O2(g)           -32.50    -35.90   -3.40  O2

**For a gas, SI = log10(fugacity). Fugacity = pressure * phi / 1 atm.
  For ideal gases, phi = 1.

Reaction step 20.

Using solution 1.	
Using gas phase 1.	
Using reaction 1.	

Reaction 1.	

	  1.350e+00 moles of the following reaction have been added:

	                 Relative
	Reactant            moles

	N2                   1.00000

	                 Relative
	Element             moles
	N                    2.00000

-----------------------------------Gas phase-----------------------------------

Total pressure: 928.02      atmospheres          (Peng-Robinson calculation)
    Gas volume:   1.00e+00 liters
  Molar volume:   3.74e-02 liters/mole
   P * Vm / RT:  0.99889  (Compressibility Factor Z) 

                                                        Moles in gas
                                            ----------------------------------
Component         log P           P    phi     Initial       Final       Delta

N2(g)              2.97   9.280e+02  0.999   2.541e+01   2.676e+01   1.347e+00

-----------------------------Solution composition------------------------------

	Elements           Molality       Moles

	N                 4.889e-01   4.889e-01

----------------------------Description of solution----------------------------

                                       pH  =   6.628      Charge balance
                                       pe  =   2.886      Adjusted to redox equilibrium
      Specific Conductance (µS/cm, 150°C)  = 11
                          Density (g/cm³)  =   0.96240
                               Volume (L)  =   1.04619
                        Viscosity (mPa s)  =   0.20486
                        Activity of water  =   0.996
                 Ionic strength (mol/kgw)  =   1.204e-05
                       Mass of water (kg)  =   1.000e+00
                 Total alkalinity (eq/kg)  =   2.360e-05
                         Temperature (°C)  = 150.00
                           Pressure (atm)  = 928.02
                  Electrical balance (eq)  =  -2.360e-05
 Percent error, 100*(Cat-|An|)/(Cat+|An|)  = -98.03
                               Iterations  =  50
                                  Total H  = 1.110125e+02
                                  Total O  = 5.550624e+01

----------------------------Distribution of species----------------------------

                                               Log       Log       Log    mole V
   Species          Molality    Activity  Molality  Activity     Gamma   cm³/mol

   OH-             2.384e-05   2.372e-05    -4.623    -4.625    -0.002    -13.79
   H+              2.369e-07   2.358e-07    -6.625    -6.628    -0.002      0.00
   H2O             5.551e+01   9.958e-01     1.744    -0.002     0.000     18.72
H(0)          3.390e-23
   H2              1.695e-23   1.695e-23   -22.771   -22.771     0.000     18.36
N(-3)         4.203e-27
   NH4+            2.200e-27   2.189e-27   -26.658   -26.660    -0.002     15.73
   NH3             2.003e-27   2.003e-27   -26.698   -26.698     0.000     22.50
N(0)          4.889e-01
   N2              2.445e-01   2.445e-01    -0.612    -0.612     0.000     29.29
N(3)          3.533e-16
   NO2-            3.533e-16   3.515e-16   -15.452   -15.454    -0.002     22.73
[...]
N(3)          4.794e-28
   NO2-            4.794e-28   4.769e-28   -27.319   -27.322    -0.002     22.45
N(5)          6.201e-36
   NO3-            6.201e-36   6.169e-36   -35.208   -35.210    -0.002     30.97
O(0)          6.162e-37
   O2              3.081e-37   3.081e-37   -36.511   -36.511     0.000     33.36

------------------------------Saturation indices-------------------------------

  Phase               SI** log IAP   log K(423 K, 695 atm)

  H2(g)           -11.70    -14.81   -3.11  H2
  H2O(g)            0.82     -0.00   -0.82  H2O
  N2(g)             2.84     -0.65   -3.49  N2
  NH3(g)          -14.73    -14.83   -0.10  NH3
  O2(g)           -33.18    -36.51   -3.33  O2

**For a gas, SI = log10(fugacity). Fugacity = pressure * phi / 1 atm.
  For ideal gases, phi = 1.

Reaction step 16.

Using solution 1.	
Using gas phase 1.	
Using reaction 1.	

Reaction 1.	

	  1.350e+00 moles of the following reaction have been added:

	                 Relative
	Reactant            moles

	N2                   1.00000

	                 Relative
	Element             moles
	N                    2.00000

-----------------------------------Gas phase-----------------------------------

Total pressure: 742.08      atmospheres 
    Gas volume:   1.00e+00 liters
  Molar volume:   4.68e-02 liters/mole

                                                        Moles in gas
                                            ----------------------------------
Component                log P           P     Initial       Final       Delta

N2(g)                     2.87   7.421e+02   2.003e+01   2.137e+01   1.344e+00

-----------------------------Solution composition------------------------------

	Elements           Molality       Moles

	N                 4.579e-01   4.579e-01

----------------------------Description of solution----------------------------

                                       pH  =   6.704      Charge balance
                                       pe  =  -1.086      Adjusted to redox equilibrium
      Specific Conductance (µS/cm, 150°C)  = 11
                          Density (g/cm³)  =   0.95434
                               Volume (L)  =   1.05457
                        Viscosity (mPa s)  =   0.20059
                        Activity of water  =   0.996
                 Ionic strength (mol/kgw)  =   1.200e-05
                       Mass of water (kg)  =   1.000e+00
                 Total alkalinity (eq/kg)  =   2.360e-05
                         Temperature (°C)  = 150.00
                           Pressure (atm)  = 742.08
                  Electrical balance (eq)  =  -2.360e-05
 Percent error, 100*(Cat-|An|)/(Cat+|An|)  = -98.34
                               Iterations  =  63
                                  Total H  = 1.110125e+02
                                  Total O  = 5.550624e+01

----------------------------Distribution of species----------------------------

                                               Log       Log       Log    mole V
   Species          Molality    Activity  Molality  Activity     Gamma   cm³/mol

   OH-             2.380e-05   2.368e-05    -4.623    -4.626    -0.002    -13.48
   H+              1.989e-07   1.978e-07    -6.701    -6.704    -0.002      0.00
   H2O             5.551e+01   9.961e-01     1.744    -0.002     0.000     18.88
H(0)          2.305e-15
   H2              1.153e-15   1.153e-15   -14.938   -14.938     0.000     18.66
N(-3)         1.888e-15
   NH3             9.984e-16   9.984e-16   -15.001   -15.001     0.000     21.97
   NH4+            8.892e-16   8.846e-16   -15.051   -15.053    -0.002     15.13
N(0)          4.579e-01
   N2              2.290e-01   2.290e-01    -0.640    -0.640     0.000     29.29
N(3)          7.214e-28
   NO2-            7.214e-28   7.177e-28   -27.142   -27.144    -0.002     22.51
N(5)          1.240e-35
   NO3-            1.240e-35   1.233e-35   -34.907   -34.909    -0.002     30.92
O(0)          1.061e-36
   O2              5.307e-37   5.307e-37   -36.275   -36.275     0.000     33.23

------------------------------Saturation indices-------------------------------

  Phase               SI** log IAP   log K(423 K, 742 atm)

  H2(g)           -11.81    -14.94   -3.13  H2
  H2O(g)            0.83     -0.00   -0.83  H2O
  N2(g)             2.87     -0.64   -3.51  N2
  NH3(g)          -14.89    -15.00   -0.11  NH3
  O2(g)           -32.93    -36.28   -3.35  O2

**For a gas, SI = log10(fugacity). Fugacity = pressure * phi / 1 atm.
  For ideal gases, phi = 1.

Reaction step 17.

Using solution 1.	
Using gas phase 1.	
Using reaction 1.	

Reaction 1.	

	  1.350e+00 moles of the following reaction have been added:

	                 Relative
	Reactant            moles

	N2                   1.00000

	                 Relative
	Element             moles
	N                    2.00000

-----------------------------------Gas phase-----------------------------------

Total pressure: 788.78      atmospheres 
    Gas volume:   1.00e+00 liters
  Molar volume:   4.40e-02 liters/mole

                                                        Moles in gas
                                            ----------------------------------
Component                log P           P     Initial       Final       Delta

N2(g)                     2.90   7.888e+02   2.137e+01   2.272e+01   1.345e+00

-----------------------------Solution composition------------------------------

	Elements           Molality       Moles

	N                 4.679e-01   4.679e-01

----------------------------Description of solution----------------------------

                                       pH  =   6.685      Charge balance
                                       pe  =  -1.041      Adjusted to redox equilibrium
      Specific Conductance (µS/cm, 150°C)  = 11
                          Density (g/cm³)  =   0.95640
                               Volume (L)  =   1.05244
                        Viscosity (mPa s)  =   0.20167
                        Activity of water  =   0.996
                 Ionic strength (mol/kgw)  =   1.201e-05
                       Mass of water (kg)  =   1.000e+00
                 Total alkalinity (eq/kg)  =   2.360e-05
                         Temperature (°C)  = 150.00
                           Pressure (atm)  = 788.78
                  Electrical balance (eq)  =  -2.360e-05
 Percent error, 100*(Cat-|An|)/(Cat+|An|)  = -98.27
                               Iterations  =  72
                                  Total H  = 1.110125e+02
                                  Total O  = 5.550624e+01

----------------------------Distribution of species----------------------------

                                               Log       Log       Log    mole V
   Species          Molality    Activity  Molality  Activity     Gamma   cm³/mol

   OH-             2.381e-05   2.369e-05    -4.623    -4.625    -0.002    -13.56
   H+              2.078e-07   2.067e-07    -6.682    -6.685    -0.002      0.00
   H2O             5.551e+01   9.960e-01     1.744    -0.002     0.000     18.84
H(0)          1.994e-15
   H2              9.971e-16   9.971e-16   -15.001   -15.001     0.000     18.58
N(-3)         1.610e-15
   NH3             8.303e-16   8.303e-16   -15.081   -15.081     0.000     22.11
   NH4+            7.794e-16   7.754e-16   -15.108   -15.110    -0.002     15.29
N(0)          4.679e-01
   N2              2.340e-01   2.340e-01    -0.631    -0.631     0.000     29.29
N(3)          8.689e-28
   NO2-            8.689e-28   8.645e-28   -27.061   -27.063    -0.002     22.57
N(5)          1.712e-35
   NO3-            1.712e-35   1.704e-35   -34.766   -34.769    -0.002     30.86
O(0)          1.363e-36
   O2              6.813e-37   6.814e-37   -36.167   -36.167     0.000     33.10

------------------------------Saturation indices-------------------------------

  Phase               SI** log IAP   log K(423 K, 789 atm)

  H2(g)           -11.87    -15.00   -3.14  H2
  H2O(g)            0.84     -0.00   -0.84  H2O
  N2(g)             2.90     -0.63   -3.53  N2
  NH3(g)          -14.95    -15.08   -0.13  NH3
  O2(g)           -32.80    -36.17   -3.37  O2

**For a gas, SI = log10(fugacity). Fugacity = pressure * phi / 1 atm.
  For ideal gases, phi = 1.

Reaction step 18.

Using solution 1.	
Using gas phase 1.	
Using reaction 1.	

Reaction 1.	

	  1.350e+00 moles of the following reaction have been added:

	                 Relative
	Reactant            moles

	N2                   1.00000

	                 Relative
	Element             moles
	N                    2.00000

-----------------------------------Gas phase-----------------------------------

Total pressure: 835.51      atmospheres 
    Gas volume:   1.00e+00 liters
  Molar volume:   4.16e-02 liters/mole

                                                        Moles in gas
                                            ----------------------------------
Component                log P           P     Initial       Final       Delta

N2(g)                     2.92   8.355e+02   2.272e+01   2.406e+01   1.346e+00

-----------------------------Solution composition------------------------------

	Elements           Molality       Moles

	N                 4.765e-01   4.765e-01

----------------------------Description of solution----------------------------

                                       pH  =   6.665      Charge balance
                                       pe  =  -1.001      Adjusted to redox equilibrium
      Specific Conductance (µS/cm, 150°C)  = 11
                          Density (g/cm³)  =   0.95844
                               Volume (L)  =   1.05032
                        Viscosity (mPa s)  =   0.20275
                        Activity of water  =   0.996
                 Ionic strength (mol/kgw)  =   1.202e-05
                       Mass of water (kg)  =   1.000e+00
                 Total alkalinity (eq/kg)  =   2.360e-05
                         Temperature (°C)  = 150.00
                           Pressure (atm)  = 835.51
                  Electrical balance (eq)  =  -2.360e-05
 Percent error, 100*(Cat-|An|)/(Cat+|An|)  = -98.19
                               Iterations  =  84
                                  Total H  = 1.110125e+02
                                  Total O  = 5.550624e+01

----------------------------Distribution of species----------------------------

                                               Log       Log       Log    mole V
   Species          Molality    Activity  Molality  Activity     Gamma   cm³/mol

   OH-             2.382e-05   2.370e-05    -4.623    -4.625    -0.002    -13.64
   H+              2.171e-07   2.160e-07    -6.663    -6.665    -0.002      0.00
   H2O             5.551e+01   9.959e-01     1.744    -0.002     0.000     18.80
H(0)          1.769e-15
   H2              8.844e-16   8.844e-16   -15.053   -15.053     0.000     18.51
N(-3)         1.423e-15
   NH3             7.151e-16   7.151e-16   -15.146   -15.146     0.000     22.24
   NH4+            7.076e-16   7.040e-16   -15.150   -15.152    -0.002     15.44
N(0)          4.765e-01
   N2              2.383e-01   2.383e-01    -0.623    -0.623     0.000     29.29
N(3)          1.006e-27
   NO2-            1.006e-27   1.001e-27   -26.997   -27.000    -0.002     22.63
N(5)          2.219e-35
   NO3-            2.219e-35   2.208e-35   -34.654   -34.656    -0.002     30.81
O(0)          1.665e-36
   O2              8.326e-37   8.326e-37   -36.080   -36.080     0.000     32.98

------------------------------Saturation indices-------------------------------

  Phase               SI** log IAP   log K(423 K, 836 atm)

  H2(g)           -11.91    -15.05   -3.15  H2
  H2O(g)            0.85     -0.00   -0.85  H2O
  N2(g)             2.92     -0.62   -3.54  N2
  NH3(g)          -15.00    -15.15   -0.14  NH3
  O2(g)           -32.70    -36.08   -3.38  O2

**For a gas, SI = log10(fugacity). Fugacity = pressure * phi / 1 atm.
  For ideal gases, phi = 1.

Reaction step 19.

WARNING: Maximum iterations exceeded, 100

WARNING: Numerical method failed with this set of convergence parameters.

WARNING: Trying smaller step size, pe step size 10, 5 ... 

Using solution 1.	
Using gas phase 1.	
Using reaction 1.	

Reaction 1.	

	  1.350e+00 moles of the following reaction have been added:

	                 Relative
	Reactant            moles

	N2                   1.00000

	                 Relative
	Element             moles
	N                    2.00000

-----------------------------------Gas phase-----------------------------------

Total pressure: 882.26      atmospheres 
    Gas volume:   1.00e+00 liters
  Molar volume:   3.94e-02 liters/mole

                                                        Moles in gas
                                            ----------------------------------
Component                log P           P     Initial       Final       Delta

N2(g)                     2.95   8.823e+02   2.406e+01   2.541e+01   1.346e+00

-----------------------------Solution composition------------------------------

	Elements           Molality       Moles

	N                 4.837e-01   4.837e-01

----------------------------Description of solution----------------------------

                                       pH  =   6.646      Charge balance
                                       pe  =   3.003      Adjusted to redox equilibrium
      Specific Conductance (µS/cm, 150°C)  = 11
                          Density (g/cm³)  =   0.96045
                               Volume (L)  =   1.04823
                        Viscosity (mPa s)  =   0.20382
                        Activity of water  =   0.996
                 Ionic strength (mol/kgw)  =   1.203e-05
                       Mass of water (kg)  =   1.000e+00
                 Total alkalinity (eq/kg)  =   2.360e-05
                         Temperature (°C)  = 150.00
                           Pressure (atm)  = 882.26
                  Electrical balance (eq)  =  -2.360e-05
 Percent error, 100*(Cat-|An|)/(Cat+|An|)  = -98.11
                               Iterations  = 104 (205 overall)
                                  Total H  = 1.110125e+02
                                  Total O  = 5.550624e+01

----------------------------Distribution of species----------------------------

                                               Log       Log       Log    mole V
   Species          Molality    Activity  Molality  Activity     Gamma   cm³/mol

   OH-             2.383e-05   2.371e-05    -4.623    -4.625    -0.002    -13.72
   H+              2.269e-07   2.258e-07    -6.644    -6.646    -0.002      0.00
   H2O             5.551e+01   9.959e-01     1.744    -0.002     0.000     18.76
H(0)          1.855e-23
   H2              9.276e-24   9.276e-24   -23.033   -23.033     0.000     18.43
N(-3)         1.615e-27
   NH4+            8.245e-28   8.203e-28   -27.084   -27.086    -0.002     15.59
   NH3             7.904e-28   7.904e-28   -27.102   -27.102     0.000     22.37
N(0)          4.837e-01
   N2              2.419e-01   2.419e-01    -0.616    -0.616     0.000     29.29
N(3)          9.047e-16
   NO2-            9.047e-16   9.002e-16   -15.043   -15.046    -0.002     22.68
N(5)          1.889e-15
   NO3-            1.889e-15   1.879e-15   -14.724   -14.726    -0.002     30.76
O(0)          1.456e-20
   O2              7.280e-21   7.280e-21   -20.138   -20.138     0.000     32.86

------------------------------Saturation indices-------------------------------

  Phase               SI** log IAP   log K(423 K, 882 atm)

  H2(g)           -19.88    -23.03   -3.16  H2
  H2O(g)            0.86     -0.00   -0.87  H2O
  N2(g)             2.95     -0.62   -3.56  N2
  NH3(g)          -26.94    -27.10   -0.16  NH3
  O2(g)           -16.74    -20.14   -3.40  O2

**For a gas, SI = log10(fugacity). Fugacity = pressure * phi / 1 atm.
  For ideal gases, phi = 1.

Reaction step 20.

WARNING: Maximum iterations exceeded, 100

WARNING: Numerical method failed with this set of convergence parameters.

WARNING: Trying smaller step size, pe step size 10, 5 ... 

Using solution 1.	
Using gas phase 1.	
Using reaction 1.	

Reaction 1.	

	  1.350e+00 moles of the following reaction have been added:

	                 Relative
	Reactant            moles

	N2                   1.00000

	                 Relative
	Element             moles
	N                    2.00000

-----------------------------------Gas phase-----------------------------------

Total pressure: 929.03      atmospheres 
    Gas volume:   1.00e+00 liters
  Molar volume:   3.74e-02 liters/mole

                                                        Moles in gas
                                            ----------------------------------
Component                log P           P     Initial       Final       Delta

N2(g)                     2.97   9.290e+02   2.541e+01   2.676e+01   1.347e+00

-----------------------------Solution composition------------------------------

	Elements           Molality       Moles

	N                 4.897e-01   4.897e-01

----------------------------Description of solution----------------------------

                                       pH  =   6.627      Charge balance
                                       pe  =   3.054      Adjusted to redox equilibrium
      Specific Conductance (µS/cm, 150°C)  = 11
                          Density (g/cm³)  =   0.96244
                               Volume (L)  =   1.04615
                        Viscosity (mPa s)  =   0.20488
                        Activity of water  =   0.996
                 Ionic strength (mol/kgw)  =   1.204e-05
                       Mass of water (kg)  =   1.000e+00
                 Total alkalinity (eq/kg)  =   2.360e-05
                         Temperature (°C)  = 150.00
                           Pressure (atm)  = 929.03
                  Electrical balance (eq)  =  -2.360e-05
 Percent error, 100*(Cat-|An|)/(Cat+|An|)  = -98.03
                               Iterations  = 117 (218 overall)
                                  Total H  = 1.110125e+02
                                  Total O  = 5.550624e+01

----------------------------Distribution of species----------------------------

                                               Log       Log       Log    mole V
   Species          Molality    Activity  Molality  Activity     Gamma   cm³/mol

   OH-             2.384e-05   2.372e-05    -4.623    -4.625    -0.002    -13.79
   H+              2.372e-07   2.360e-07    -6.625    -6.627    -0.002      0.00
   H2O             5.551e+01   9.958e-01     1.744    -0.002     0.000     18.72
H(0)          1.563e-23
   H2              7.816e-24   7.816e-24   -23.107   -23.107     0.000     18.36
N(-3)         1.318e-27
   NH4+            6.905e-28   6.870e-28   -27.161   -27.163    -0.002     15.74
   NH3             6.280e-28   6.280e-28   -27.202   -27.202     0.000     22.50
N(0)          4.897e-01
   N2              2.448e-01   2.448e-01    -0.611    -0.611     0.000     29.29
N(3)          1.128e-15
   NO2-            1.128e-15   1.122e-15   -14.948   -14.950    -0.002     22.73
N(5)          2.775e-15
   NO3-            2.775e-15   2.761e-15   -14.557   -14.559    -0.002     30.72
O(0)          1.973e-20
   O2              9.865e-21   9.865e-21   -20.006   -20.006     0.000     32.74

------------------------------Saturation indices-------------------------------

  Phase               SI** log IAP   log K(423 K, 929 atm)

  H2(g)           -19.94    -23.11   -3.17  H2
  H2O(g)            0.87     -0.00   -0.88  H2O
  N2(g)             2.97     -0.61   -3.58  N2
  NH3(g)          -27.03    -27.20   -0.17  NH3
  O2(g)           -16.59    -20.01   -3.42  O2

**For a gas, SI = log10(fugacity). Fugacity = pressure * phi / 1 atm.
  For ideal gases, phi = 1.

------------------
End of simulation.
------------------

------------------------------------
Reading input data for simulation 3.
------------------------------------

