WARNING: Database file from DATABASE keyword is used; command line argument ignored.
   Input file: Na2SO4_phr
  Output file: Na2SO4_phr.out
Database file: ../database/phreeqc.dat

------------------
Reading data base.
------------------

	SOLUTION_MASTER_SPECIES
	SOLUTION_SPECIES
	PHASES
	GAS_BINARY_PARAMETERS
	EXCHANGE_MASTER_SPECIES
	EXCHANGE_SPECIES
	SURFACE_MASTER_SPECIES
	SURFACE_SPECIES
	MEAN_GAMMAS
	RATES
	END
------------------------------------
Reading input data for simulation 1.
------------------------------------

	DATABASE ../database/phreeqc.dat
	SELECTED_OUTPUT 101
	    file                 Na2SO4_phr_101.sel
	USER_PUNCH 101
	    headings Mu SC
	    start
	10 PUNCH STR_F$(MU, 20, 12)
	20 PUNCH STR_F$(SC, 20, 10)
	    end
	SOLUTION_SPECIES
	SO4-2 = SO4-2
		gamma	     2.6878744E+00    -1.9968622E-01
	Na+ + SO4-2 = NaSO4-
	 log_k -1e5
	H2O + 0.01e- = H2O-0.01
	log_k -9
	SOLUTION 1
	PHASES
	Mirabilite
		Na2SO4:10H2O  =  SO4-2 + 2 Na+ + 10 H2O
		log_k	   -1.214
		analytical_expression     -3862.234   -1.19856    93713.54    1577.756    0.0
		Vm 216
	Thenardite
		Na2SO4 = 2 Na+ + SO4-2
		log_k -0.35
	 analytical_expression  7.9206627e2  3.6570899e-1  -1.9344429e4  -3.3198923e2  0  -1.6913933e-4 
	 Vm 52.9
	EQUILIBRIUM_PHASES 1
	 Mirabilite 0 12
	 Thenardite 0 0
	REACTION_TEMPERATURE 1
	 0 35 in 8
	USER_GRAPH 1
	-chart_title "Mirabilite/Thenardite solubility"
	-axis_titles "mol Na2SO4 / kgw" "temperature / oC"
	-plot_csv_file Na2SO4.csv
	70 plot_xy tot("S"), tc, symbol_size = 0, color = Red
	-end
	PRINT
	 status false
	SAVE solution 1
	END
-------------------------------------------
Beginning of initial solution calculations.
-------------------------------------------

Initial solution 1.	

-----------------------------Solution composition------------------------------

	Elements           Molality       Moles

	Pure water     

----------------------------Description of solution----------------------------

                                       pH  =   7.000    
                                       pe  =   4.000    
      Specific Conductance (µS/cm,  25°C)  = 0
                          Density (g/cm³)  =   0.99704
                               Volume (L)  =   1.00297
                        Viscosity (mPa s)  =   0.89002
                        Activity of water  =   1.000
                 Ionic strength (mol/kgw)  =   1.007e-07
                       Mass of water (kg)  =   1.000e+00
                 Total alkalinity (eq/kg)  =   1.226e-09
                         Temperature (°C)  =  25.00
                  Electrical balance (eq)  =  -1.226e-09
 Percent error, 100*(Cat-|An|)/(Cat+|An|)  =  -0.61
                               Iterations  =   0
                                  Total H  = 1.110124e+02
                                  Total O  = 5.550622e+01

----------------------------Distribution of species----------------------------

                                               Log       Log       Log    mole V
   Species          Molality    Activity  Molality  Activity     Gamma   cm³/mol

   OH-             1.013e-07   1.012e-07    -6.995    -6.995    -0.000     -4.14
   H+              1.001e-07   1.000e-07    -7.000    -7.000    -0.000      0.00
   H2O-0.01        9.120e-10   9.120e-10    -9.040    -9.040    -0.000     (0)  
   H2O             5.551e+01   1.000e+00     1.744     0.000     0.000     18.07
H(0)          1.416e-25
   H2              7.079e-26   7.079e-26   -25.150   -25.150     0.000     14.99
O(0)          0.000e+00
   O2              0.000e+00   0.000e+00   -42.063   -42.063     0.000     30.40

------------------------------Saturation indices-------------------------------

  Phase               SI** log IAP   log K(298 K,   1 atm)

  H2(g)           -22.05    -25.15   -3.10  H2
  H2O(g)           -1.50      0.00    1.50  H2O
  O2(g)           -39.17    -42.06   -2.89  O2

**For a gas, SI = log10(fugacity). Fugacity = pressure * phi / 1 atm.
  For ideal gases, phi = 1.

-----------------------------------------
Beginning of batch-reaction calculations.
-----------------------------------------

Reaction step 1.

Using solution 1.	
Using pure phase assemblage 1.	
Using temperature 1.	

-------------------------------Phase assemblage--------------------------------

                                                      Moles in assemblage
Phase               SI  log IAP  log K(T, P)   Initial       Final       Delta

Mirabilite        0.00    -2.49     -2.49    1.200e+01   1.168e+01  -3.203e-01
Thenardite       -2.08    -2.42     -0.34    0.000e+00           0   0.000e+00

-----------------------------Solution composition------------------------------

	Elements           Molality       Moles

	Na                6.057e-01   6.407e-01
	S                 3.029e-01   3.203e-01

----------------------------Description of solution----------------------------

                                       pH  =   7.586      Charge balance
                                       pe  =   5.791      Adjusted to redox equilibrium
      Specific Conductance (µS/cm,   0°C)  = 10071
                          Density (g/cm³)  =   1.04414
                               Volume (L)  =   1.05658
                        Viscosity (mPa s)  =   1.98688
                        Activity of water  =   0.985
                 Ionic strength (mol/kgw)  =   9.086e-01
                       Mass of water (kg)  =   1.058e+00
                 Total alkalinity (eq/kg)  =   1.159e-09
                         Temperature (°C)  =   0.00
                  Electrical balance (eq)  =  -1.275e-09
 Percent error, 100*(Cat-|An|)/(Cat+|An|)  =  -0.00
                               Iterations  =  12
                                  Total H  = 1.174193e+02
                                  Total O  = 5.999103e+01

----------------------------Distribution of species----------------------------

                                               Log       Log       Log    mole V
   Species          Molality    Activity  Molality  Activity     Gamma   cm³/mol

   OH-             7.332e-08   4.372e-08    -7.135    -7.359    -0.225     -4.49
   H+              3.450e-08   2.595e-08    -7.462    -7.586    -0.124      0.00
   H2O-0.01        8.617e-10   8.616e-10    -9.065    -9.065    -0.000     (0)  
   H2O             5.551e+01   9.846e-01     1.744    -0.007     0.000     18.02
H(0)          2.624e-30
   H2              1.312e-30   1.634e-30   -29.882   -29.787     0.095     12.27
Na            6.057e-01
   Na+             6.057e-01   4.467e-01    -0.218    -0.350    -0.132     -2.04
   Na2SO4          6.323e-07   7.610e-07    -6.199    -6.119     0.080     66.96
O(0)          0.000e+00
   O2              0.000e+00   0.000e+00   -42.003   -41.912     0.091     27.49
S(-2)         0.000e+00
   HS-             0.000e+00   0.000e+00   -78.390   -78.615    -0.225     19.11
   H2S             0.000e+00   0.000e+00   -78.940   -78.849     0.091     26.92
   S-2             0.000e+00   0.000e+00   -84.024   -84.759    -0.735     (0)  
   (H2S)2          0.000e+00   0.000e+00  -159.396  -159.305     0.091     30.91
S(6)          3.029e-01
   SO4-2           3.029e-01   1.897e-02    -0.519    -1.722    -1.203     (0)  
   Na2SO4          6.323e-07   7.610e-07    -6.199    -6.119     0.080     66.96
   HSO4-           3.768e-08   2.954e-08    -7.424    -7.530    -0.106     38.05

------------------------------Saturation indices-------------------------------

  Phase               SI** log IAP   log K(273 K,   1 atm)

  H2(g)           -26.76    -29.79   -3.03  H2
  H2O(g)           -2.22     -0.01    2.21  H2O
  H2S(g)          -78.19    -86.20   -8.01  H2S
  Mirabilite        0.00     -2.49   -2.49  Na2SO4:10H2O
  O2(g)           -39.25    -41.91   -2.66  O2
  Sulfur          -57.61    -52.09    5.52  S
  Thenardite       -2.08     -2.42   -0.34  Na2SO4

**For a gas, SI = log10(fugacity). Fugacity = pressure * phi / 1 atm.
  For ideal gases, phi = 1.

Reaction step 2.

Using solution 1.	
Using pure phase assemblage 1.	
Using temperature 1.	

-------------------------------Phase assemblage--------------------------------

                                                      Moles in assemblage
Phase               SI  log IAP  log K(T, P)   Initial       Final       Delta

Mirabilite        0.00    -2.22     -2.22    1.200e+01   1.154e+01  -4.621e-01
Thenardite       -1.81    -2.12     -0.32    0.000e+00           0   0.000e+00

-----------------------------Solution composition------------------------------

	Elements           Molality       Moles

	Na                8.532e-01   9.243e-01
	S                 4.266e-01   4.621e-01

----------------------------Description of solution----------------------------

                                       pH  =   7.467      Charge balance
                                       pe  =   6.545      Adjusted to redox equilibrium
      Specific Conductance (µS/cm,   5°C)  = 15463
                          Density (g/cm³)  =   1.06174
                               Volume (L)  =   1.08209
                        Viscosity (mPa s)  =   1.79180
                        Activity of water  =   0.978
                 Ionic strength (mol/kgw)  =   1.280e+00
                       Mass of water (kg)  =   1.083e+00
                 Total alkalinity (eq/kg)  =   1.131e-09
                         Temperature (°C)  =   5.00
                  Electrical balance (eq)  =  -1.225e-09
 Percent error, 100*(Cat-|An|)/(Cat+|An|)  =  -0.00
                               Iterations  =  13
                                  Total H  = 1.202552e+02
                                  Total O  = 6.197612e+01

----------------------------Distribution of species----------------------------

                                               Log       Log       Log    mole V
   Species          Molality    Activity  Molality  Activity     Gamma   cm³/mol

   OH-             9.390e-08   5.350e-08    -7.027    -7.272    -0.244     -3.26
   H+              4.594e-08   3.408e-08    -7.338    -7.467    -0.130      0.00
   H2O-0.01        8.414e-10   8.414e-10    -9.075    -9.075    -0.000     (0)  
   H2O             5.551e+01   9.782e-01     1.744    -0.010     0.000     18.02
H(0)          1.215e-31
   H2              6.073e-32   8.276e-32   -31.217   -31.082     0.134     13.02
Na            8.532e-01
   Na+             8.532e-01   6.494e-01    -0.069    -0.187    -0.119     -1.30
   Na2SO4          2.250e-06   2.920e-06    -5.648    -5.535     0.113     61.65
O(0)          6.397e-38
   O2              3.199e-38   4.295e-38   -37.495   -37.367     0.128     28.29
S(-2)         0.000e+00
   HS-             0.000e+00   0.000e+00   -84.215   -84.459    -0.244     19.95
   H2S             0.000e+00   0.000e+00   -84.799   -84.671     0.128     29.51
   S-2             0.000e+00   0.000e+00   -89.760   -90.547    -0.787     (0)  
   (H2S)2          0.000e+00   0.000e+00  -171.002  -170.874     0.128     30.79
S(6)          4.266e-01
   SO4-2           4.266e-01   1.779e-02    -0.370    -1.750    -1.380     (0)  
   Na2SO4          2.250e-06   2.920e-06    -5.648    -5.535     0.113     61.65
   HSO4-           4.684e-08   3.963e-08    -7.329    -7.402    -0.073     39.06

------------------------------Saturation indices-------------------------------

  Phase               SI** log IAP   log K(278 K,   1 atm)

  H2(g)           -28.04    -31.08   -3.05  H2
  H2O(g)           -2.07     -0.01    2.06  H2O
  H2S(g)          -83.93    -91.93   -7.99  H2S
  Mirabilite        0.00     -2.22   -2.22  Na2SO4:10H2O
  O2(g)           -34.65    -37.37   -2.71  O2
  Sulfur          -62.03    -56.65    5.38  S
  Thenardite       -1.81     -2.12   -0.32  Na2SO4

**For a gas, SI = log10(fugacity). Fugacity = pressure * phi / 1 atm.
  For ideal gases, phi = 1.

Reaction step 3.

Using solution 1.	
Using pure phase assemblage 1.	
Using temperature 1.	

-------------------------------Phase assemblage--------------------------------

                                                      Moles in assemblage
Phase               SI  log IAP  log K(T, P)   Initial       Final       Delta

Mirabilite        0.00    -1.95     -1.95    1.200e+01   1.131e+01  -6.889e-01
Thenardite       -1.51    -1.82     -0.31    0.000e+00           0   0.000e+00

-----------------------------Solution composition------------------------------

	Elements           Molality       Moles

	Na                1.226e+00   1.378e+00
	S                 6.129e-01   6.889e-01

----------------------------Description of solution----------------------------

                                       pH  =   7.341      Charge balance
                                       pe  =   7.728      Adjusted to redox equilibrium
      Specific Conductance (µS/cm,  10°C)  = 23271
                          Density (g/cm³)  =   1.08757
                               Volume (L)  =   1.12358
                        Viscosity (mPa s)  =   1.69296
                        Activity of water  =   0.969
                 Ionic strength (mol/kgw)  =   1.839e+00
                       Mass of water (kg)  =   1.124e+00
                 Total alkalinity (eq/kg)  =   1.090e-09
                         Temperature (°C)  =  10.00
                  Electrical balance (eq)  =  -1.224e-09
 Percent error, 100*(Cat-|An|)/(Cat+|An|)  =  -0.00
                               Iterations  =  14
                                  Total H  = 1.247911e+02
                                  Total O  = 6.515130e+01

----------------------------Distribution of species----------------------------

                                               Log       Log       Log    mole V
   Species          Molality    Activity  Molality  Activity     Gamma   cm³/mol

   OH-             1.150e-07   6.247e-08    -6.939    -7.204    -0.265     -1.92
   H+              6.233e-08   4.562e-08    -7.205    -7.341    -0.136      0.00
   H2O-0.01        8.108e-10   8.108e-10    -9.091    -9.091    -0.000     (0)  
   H2O             5.551e+01   9.687e-01     1.744    -0.014     0.000     18.02
H(0)          7.732e-34
   H2              3.866e-34   6.030e-34   -33.413   -33.220     0.193     13.63
Na            1.226e+00
   Na+             1.226e+00   9.964e-01     0.088    -0.002    -0.090     -0.64
   Na2SO4          7.700e-06   1.120e-05    -5.114    -4.951     0.163     57.31
O(0)          8.029e-32
   O2              4.015e-32   6.131e-32   -31.396   -31.212     0.184     28.95
S(-2)         0.000e+00
   HS-             0.000e+00   0.000e+00   -93.401   -93.666    -0.265     20.70
   H2S             0.000e+00   0.000e+00   -94.024   -93.841     0.184     31.64
   S-2             0.000e+00   0.000e+00   -98.872   -99.713    -0.841     (0)  
   (H2S)2          0.000e+00   0.000e+00  -189.326  -189.143     0.184     30.64
S(6)          6.129e-01
   SO4-2           6.129e-01   1.536e-02    -0.213    -1.814    -1.601     (0)  
   Na2SO4          7.700e-06   1.120e-05    -5.114    -4.951     0.163     57.31
   HSO4-           5.158e-08   5.018e-08    -7.288    -7.299    -0.012     39.93

------------------------------Saturation indices-------------------------------

  Phase               SI** log IAP   log K(283 K,   1 atm)

  H2(g)           -30.16    -33.22   -3.06  H2
  H2O(g)           -1.92     -0.01    1.91  H2O
  H2S(g)          -93.03   -101.01   -7.98  H2S
  Mirabilite        0.00     -1.95   -1.95  Na2SO4:10H2O
  O2(g)           -28.45    -31.21   -2.77  O2
  Sulfur          -68.95    -63.70    5.25  S
  Thenardite       -1.51     -1.82   -0.31  Na2SO4

**For a gas, SI = log10(fugacity). Fugacity = pressure * phi / 1 atm.
  For ideal gases, phi = 1.

Reaction step 4.

Using solution 1.	
Using pure phase assemblage 1.	
Using temperature 1.	

-------------------------------Phase assemblage--------------------------------

                                                      Moles in assemblage
Phase               SI  log IAP  log K(T, P)   Initial       Final       Delta

Mirabilite        0.00    -1.70     -1.70    1.200e+01   1.092e+01  -1.085e+00
Thenardite       -1.19    -1.49     -0.30    0.000e+00           0   0.000e+00

-----------------------------Solution composition------------------------------

	Elements           Molality       Moles

	Na                1.815e+00   2.170e+00
	S                 9.076e-01   1.085e+00

----------------------------Description of solution----------------------------

                                       pH  =   7.203      Charge balance
                                       pe  =   9.715      Adjusted to redox equilibrium
      Specific Conductance (µS/cm,  15°C)  = 34145
                          Density (g/cm³)  =   1.12787
                               Volume (L)  =   1.19657
                        Viscosity (mPa s)  =   1.71438
                        Activity of water  =   0.954
                 Ionic strength (mol/kgw)  =   2.723e+00
                       Mass of water (kg)  =   1.195e+00
                 Total alkalinity (eq/kg)  =   1.025e-09
                         Temperature (°C)  =  15.00
                  Electrical balance (eq)  =  -9.676e-10
 Percent error, 100*(Cat-|An|)/(Cat+|An|)  =  -0.00
                               Iterations  =  15
                                  Total H  = 1.327116e+02
                                  Total O  = 7.069562e+01

----------------------------Distribution of species----------------------------

                                               Log       Log       Log    mole V
   Species          Molality    Activity  Molality  Activity     Gamma   cm³/mol

   OH-             1.335e-07   6.900e-08    -6.874    -7.161    -0.287     -0.27
   H+              8.683e-08   6.270e-08    -7.061    -7.203    -0.141      0.00
   H2O-0.01        7.625e-10   7.626e-10    -9.118    -9.118     0.000     (0)  
   H2O             5.551e+01   9.537e-01     1.744    -0.021     0.000     18.03
H(0)          1.188e-37
   H2              5.939e-38   1.147e-37   -37.226   -36.940     0.286     14.15
Na            1.815e+00
   Na+             1.815e+00   1.673e+00     0.259     0.224    -0.035      0.01
   Na2SO4          2.510e-05   4.372e-05    -4.600    -4.359     0.241     53.68
O(0)          1.157e-22
   O2              5.786e-23   1.083e-22   -22.238   -21.965     0.272     29.51
S(-2)         0.000e+00
   HS-             0.000e+00   0.000e+00  -108.932  -109.219    -0.287     21.41
   H2S             0.000e+00   0.000e+00  -109.609  -109.337     0.272     33.43
   S-2             0.000e+00   0.000e+00  -114.346  -115.242    -0.896     (0)  
   (H2S)2          0.000e+00   0.000e+00  -220.341  -220.069     0.272     30.48
S(6)          9.076e-01
   SO4-2           9.075e-01   1.155e-02    -0.042    -1.937    -1.895     (0)  
   Na2SO4          2.510e-05   4.372e-05    -4.600    -4.359     0.241     53.68
   HSO4-           4.566e-08   5.714e-08    -7.340    -7.243     0.097     40.71

------------------------------Saturation indices-------------------------------

  Phase               SI** log IAP   log K(288 K,   1 atm)

  H2(g)           -33.86    -36.94   -3.08  H2
  H2O(g)           -1.79     -0.02    1.77  H2O
  H2S(g)         -108.46   -116.42   -7.96  H2S
  Mirabilite        0.00     -1.70   -1.70  Na2SO4:10H2O
  O2(g)           -19.15    -21.97   -2.81  O2
  Sulfur          -80.63    -75.50    5.12  S
  Thenardite       -1.19     -1.49   -0.30  Na2SO4

**For a gas, SI = log10(fugacity). Fugacity = pressure * phi / 1 atm.
  For ideal gases, phi = 1.

Reaction step 5.

Using solution 1.	
Using pure phase assemblage 1.	
Using temperature 1.	

-------------------------------Phase assemblage--------------------------------

                                                      Moles in assemblage
Phase               SI  log IAP  log K(T, P)   Initial       Final       Delta

Mirabilite        0.00    -1.45     -1.45    1.200e+01   1.005e+01  -1.955e+00
Thenardite       -0.82    -1.12     -0.30    0.000e+00           0   0.000e+00

-----------------------------Solution composition------------------------------

	Elements           Molality       Moles

	Na                2.891e+00   3.910e+00
	S                 1.446e+00   1.955e+00

----------------------------Description of solution----------------------------

                                       pH  =   7.057      Charge balance
                                       pe  =  11.745      Adjusted to redox equilibrium
      Specific Conductance (µS/cm,  20°C)  = 48555
                          Density (g/cm³)  =   1.20070
                               Volume (L)  =   1.35745
                        Viscosity (mPa s)  =   1.98445
                        Activity of water  =   0.926
                 Ionic strength (mol/kgw)  =   4.337e+00
                       Mass of water (kg)  =   1.352e+00
                 Total alkalinity (eq/kg)  =   9.064e-10
                         Temperature (°C)  =  20.00
                  Electrical balance (eq)  =  -1.224e-09
 Percent error, 100*(Cat-|An|)/(Cat+|An|)  =  -0.00
                               Iterations  =  19
                                  Total H  = 1.501112e+02
                                  Total O  = 8.287534e+01

----------------------------Distribution of species----------------------------

                                               Log       Log       Log    mole V
   Species          Molality    Activity  Molality  Activity     Gamma   cm³/mol

   OH-             1.479e-07   7.228e-08    -6.830    -7.141    -0.311      2.25
   H+              1.232e-07   8.773e-08    -6.909    -7.057    -0.147      0.00
   H2O-0.01        7.067e-10   7.068e-10    -9.151    -9.151     0.000     (0)  
   H2O             5.551e+01   9.263e-01     1.744    -0.033     0.000     18.05
H(0)          0.000e+00
   H2              0.000e+00   0.000e+00   -41.187   -40.731     0.455     14.60
Na            2.891e+00
   Na+             2.891e+00   3.455e+00     0.461     0.538     0.077      0.72
   Na2SO4          7.705e-05   1.865e-04    -4.113    -3.729     0.384     50.60
O(0)          1.629e-13
   O2              8.144e-14   2.211e-13   -13.089   -12.655     0.434     29.98
S(-2)         0.000e+00
   HS-             0.000e+00   0.000e+00  -124.817  -125.128    -0.311     22.20
   H2S             0.000e+00   0.000e+00  -125.609  -125.175     0.434     34.96
   S-2             0.000e+00   0.000e+00  -130.186  -131.141    -0.955     (0)  
   (H2S)2          0.000e+00   0.000e+00  -252.119  -251.685     0.434     30.29
S(6)          1.446e+00
   SO4-2           1.446e+00   6.421e-03     0.160    -2.192    -2.352     (0)  
   Na2SO4          7.705e-05   1.865e-04    -4.113    -3.729     0.384     50.60
   HSO4-           2.376e-08   4.922e-08    -7.624    -7.308     0.316     41.45

------------------------------Saturation indices-------------------------------

  Phase               SI** log IAP   log K(293 K,   1 atm)

  H2(g)           -37.64    -40.73   -3.09  H2
  H2O(g)           -1.67     -0.03    1.63  H2O
  H2S(g)         -124.24   -132.19   -7.95  H2S
  Mirabilite        0.00     -1.45   -1.45  Na2SO4:10H2O
  O2(g)            -9.80    -12.66   -2.85  O2
  Sulfur          -92.57    -87.57    5.00  S
  Thenardite       -0.82     -1.12   -0.30  Na2SO4

**For a gas, SI = log10(fugacity). Fugacity = pressure * phi / 1 atm.
  For ideal gases, phi = 1.

Reaction step 6.

Using solution 1.	
Using pure phase assemblage 1.	
Using temperature 1.	

-------------------------------Phase assemblage--------------------------------

                                                      Moles in assemblage
Phase               SI  log IAP  log K(T, P)   Initial       Final       Delta

Mirabilite       -0.14    -1.35     -1.21    1.200e+01           0  -1.200e+01
Thenardite       -0.12    -0.42     -0.30    0.000e+00           0   0.000e+00

-----------------------------Solution composition------------------------------

	Elements           Molality       Moles

	Na                7.590e+00   2.400e+01
	S                 3.795e+00   1.200e+01

----------------------------Description of solution----------------------------

                                       pH  =   6.947      Charge balance
                                       pe  =  11.878      Adjusted to redox equilibrium
      Specific Conductance (µS/cm,  25°C)  = 62960
                          Density (g/cm³)  =   1.50868
                               Volume (L)  =   3.22564
                        Viscosity (mPa s)  =   4.90656
                        Activity of water  =   0.806
                 Ionic strength (mol/kgw)  =   1.139e+01
                       Mass of water (kg)  =   3.162e+00
                 Total alkalinity (eq/kg)  =   3.876e-10
                         Temperature (°C)  =  25.00
                  Electrical balance (eq)  =  -1.820e-09
 Percent error, 100*(Cat-|An|)/(Cat+|An|)  =  -0.00
                               Iterations  =  85
                                  Total H  = 3.510124e+02
                                  Total O  = 2.235062e+02

----------------------------Distribution of species----------------------------

                                               Log       Log       Log    mole V
   Species          Molality    Activity  Molality  Activity     Gamma   cm³/mol

   OH-             1.627e-07   7.223e-08    -6.789    -7.141    -0.353     11.46
   H+              1.621e-07   1.130e-07    -6.790    -6.947    -0.157      0.00
   H2O-0.01        6.133e-10   6.135e-10    -9.212    -9.212     0.000     (0)  
   H2O             5.551e+01   8.065e-01     1.744    -0.093     0.000     18.07
H(0)          0.000e+00
   H2              0.000e+00   0.000e+00   -41.995   -40.800     1.195     14.99
Na            7.590e+00
   Na+             7.590e+00   3.178e+01     0.880     1.502     0.622      2.26
   Na2SO4          1.601e-04   1.629e-03    -3.796    -2.788     1.008     47.96
O(0)          1.632e-12
   O2              8.161e-13   1.123e-11   -12.088   -10.950     1.139     30.40
S(-2)         0.000e+00
   HS-             0.000e+00   0.000e+00  -126.594  -126.947    -0.353     23.76
   H2S             0.000e+00   0.000e+00  -128.090  -126.952     1.139     36.27
   S-2             0.000e+00   0.000e+00  -131.865  -132.918    -1.052     (0)  
   (H2S)2          0.000e+00   0.000e+00  -256.320  -255.182     1.139     30.09
S(6)          3.795e+00
   SO4-2           3.795e+00   3.766e-04     0.579    -3.424    -4.003     (0)  
   Na2SO4          1.601e-04   1.629e-03    -3.796    -2.788     1.008     47.96
   HSO4-           1.854e-10   4.138e-09    -9.732    -8.383     1.349     42.45

------------------------------Saturation indices-------------------------------

  Phase               SI** log IAP   log K(298 K,   1 atm)

  H2(g)           -37.70    -40.80   -3.10  H2
  H2O(g)           -1.60     -0.09    1.50  H2O
  H2S(g)         -125.96   -133.89   -7.94  H2S
  Mirabilite       -0.14     -1.35   -1.21  Na2SO4:10H2O
  O2(g)            -8.06    -10.95   -2.89  O2
  Sulfur          -94.18    -89.30    4.88  S
  Thenardite       -0.12     -0.42   -0.30  Na2SO4

**For a gas, SI = log10(fugacity). Fugacity = pressure * phi / 1 atm.
  For ideal gases, phi = 1.

Reaction step 7.

WARNING: Maximum iterations exceeded, 100

WARNING: Numerical method failed with this set of convergence parameters.

WARNING: Trying smaller step size, pe step size 10, 5 ... 

Using solution 1.	
Using pure phase assemblage 1.	
Using temperature 1.	

-------------------------------Phase assemblage--------------------------------

                                                      Moles in assemblage
Phase               SI  log IAP  log K(T, P)   Initial       Final       Delta

Mirabilite       -0.38    -1.37     -0.99    1.200e+01           0  -1.200e+01
Thenardite       -0.13    -0.44     -0.31    0.000e+00           0   0.000e+00

-----------------------------Solution composition------------------------------

	Elements           Molality       Moles

	Na                7.590e+00   2.400e+01
	S                 3.795e+00   1.200e+01

----------------------------Description of solution----------------------------

                                       pH  =   6.865      Charge balance
                                       pe  =  11.543      Adjusted to redox equilibrium
      Specific Conductance (µS/cm,  30°C)  = 70344
                          Density (g/cm³)  =   1.50648
                               Volume (L)  =   3.23034
                        Viscosity (mPa s)  =   4.32544
                        Activity of water  =   0.806
                 Ionic strength (mol/kgw)  =   1.138e+01
                       Mass of water (kg)  =   3.162e+00
                 Total alkalinity (eq/kg)  =   3.876e-10
                         Temperature (°C)  =  30.00
                  Electrical balance (eq)  =  -1.226e-09
 Percent error, 100*(Cat-|An|)/(Cat+|An|)  =  -0.00
                               Iterations  =  36 (137 overall)
                                  Total H  = 3.510124e+02
                                  Total O  = 2.235062e+02

----------------------------Distribution of species----------------------------

                                               Log       Log       Log    mole V
   Species          Molality    Activity  Molality  Activity     Gamma   cm³/mol

   OH-             1.967e-07   8.684e-08    -6.706    -7.061    -0.355     11.76
   H+              1.961e-07   1.363e-07    -6.708    -6.865    -0.158      0.00
   H2O-0.01        6.180e-10   6.182e-10    -9.209    -9.209     0.000     (0)  
   H2O             5.551e+01   8.065e-01     1.744    -0.093     0.000     18.09
H(0)          0.000e+00
   H2              0.000e+00   1.029e-40   -41.183   -39.988     1.195     15.34
Na            7.590e+00
   Na+             7.590e+00   3.163e+01     0.880     1.500     0.620      2.27
   Na2SO4          2.659e-04   2.706e-03    -3.575    -2.568     1.008     45.66
O(0)          1.646e-12
   O2              8.228e-13   1.132e-11   -12.085   -10.946     1.138     30.77
S(-2)         0.000e+00
   HS-             0.000e+00   0.000e+00  -123.915  -124.271    -0.355     24.10
   H2S             0.000e+00   0.000e+00  -125.395  -124.256     1.138     37.42
   S-2             0.000e+00   0.000e+00  -129.118  -130.177    -1.059     (0)  
   (H2S)2          0.000e+00   0.000e+00  -250.877  -249.738     1.138     29.87
S(6)          3.795e+00
   SO4-2           3.795e+00   3.664e-04     0.579    -3.436    -4.015     (0)  
   Na2SO4          2.659e-04   2.706e-03    -3.575    -2.568     1.008     45.66
   HSO4-           2.367e-10   5.428e-09    -9.626    -8.265     1.360     42.74

------------------------------Saturation indices-------------------------------

  Phase               SI** log IAP   log K(303 K,   1 atm)

  H2(g)           -36.88    -39.99   -3.11  H2
  H2O(g)           -1.47     -0.09    1.38  H2O
  H2S(g)         -123.21   -131.14   -7.93  H2S
  Mirabilite       -0.38     -1.37   -0.99  Na2SO4:10H2O
  O2(g)            -8.02    -10.95   -2.93  O2
  Sulfur          -92.21    -87.44    4.77  S
  Thenardite       -0.13     -0.44   -0.31  Na2SO4

**For a gas, SI = log10(fugacity). Fugacity = pressure * phi / 1 atm.
  For ideal gases, phi = 1.

Reaction step 8.

Using solution 1.	
Using pure phase assemblage 1.	
Using temperature 1.	

-------------------------------Phase assemblage--------------------------------

                                                      Moles in assemblage
Phase               SI  log IAP  log K(T, P)   Initial       Final       Delta

Mirabilite       -0.59    -1.39     -0.79    1.200e+01           0  -1.200e+01
Thenardite       -0.13    -0.45     -0.32    0.000e+00           0   0.000e+00

-----------------------------Solution composition------------------------------

	Elements           Molality       Moles

	Na                7.590e+00   2.400e+01
	S                 3.795e+00   1.200e+01

----------------------------Description of solution----------------------------

                                       pH  =   6.788      Charge balance
                                       pe  =  11.220      Adjusted to redox equilibrium
      Specific Conductance (µS/cm,  35°C)  = 77971
                          Density (g/cm³)  =   1.50403
                               Volume (L)  =   3.23559
                        Viscosity (mPa s)  =   3.84426
                        Activity of water  =   0.806
                 Ionic strength (mol/kgw)  =   1.138e+01
                       Mass of water (kg)  =   3.162e+00
                 Total alkalinity (eq/kg)  =   3.876e-10
                         Temperature (°C)  =  35.00
                  Electrical balance (eq)  =  -1.226e-09
 Percent error, 100*(Cat-|An|)/(Cat+|An|)  =  -0.00
                               Iterations  =  33
                                  Total H  = 3.510124e+02
                                  Total O  = 2.235062e+02

----------------------------Distribution of species----------------------------

                                               Log       Log       Log    mole V
   Species          Molality    Activity  Molality  Activity     Gamma   cm³/mol

   OH-             2.357e-07   1.035e-07    -6.628    -6.985    -0.358     12.02
   H+              2.350e-07   1.630e-07    -6.629    -6.788    -0.159      0.00
   H2O-0.01        6.227e-10   6.229e-10    -9.206    -9.206     0.000     (0)  
   H2O             5.551e+01   8.065e-01     1.744    -0.093     0.000     18.12
H(0)          0.000e+00
   H2              0.000e+00   6.211e-40   -40.402   -39.207     1.195     15.65
Na            7.590e+00
   Na+             7.589e+00   3.146e+01     0.880     1.498     0.618      2.28
   Na2SO4          4.322e-04   4.397e-03    -3.364    -2.357     1.008     43.65
O(0)          1.671e-12
   O2              8.356e-13   1.149e-11   -12.078   -10.940     1.138     31.10
S(-2)         0.000e+00
   HS-             0.000e+00   0.000e+00  -121.346  -121.703    -0.358     24.40
   H2S             0.000e+00   0.000e+00  -122.806  -121.668     1.138     38.44
   S-2             0.000e+00   0.000e+00  -126.479  -127.546    -1.067     (0)  
   (H2S)2          0.000e+00   0.000e+00  -245.651  -244.512     1.138     29.63
S(6)          3.795e+00
   SO4-2           3.795e+00   3.559e-04     0.579    -3.449    -4.028     (0)  
   Na2SO4          4.322e-04   4.397e-03    -3.364    -2.357     1.008     43.65
   HSO4-           3.000e-10   7.076e-09    -9.523    -8.150     1.373     42.99

------------------------------Saturation indices-------------------------------

  Phase               SI** log IAP   log K(308 K,   1 atm)

  H2(g)           -36.09    -39.21   -3.12  H2
  H2O(g)           -1.35     -0.09    1.26  H2O
  H2S(g)         -120.57   -128.49   -7.92  H2S
  Mirabilite       -0.59     -1.39   -0.79  Na2SO4:10H2O
  O2(g)            -7.98    -10.94   -2.96  O2
  Sulfur          -90.31    -85.65    4.66  S
  Thenardite       -0.13     -0.45   -0.32  Na2SO4

**For a gas, SI = log10(fugacity). Fugacity = pressure * phi / 1 atm.
  For ideal gases, phi = 1.

------------------
End of simulation.
------------------

------------------------------------
Reading input data for simulation 2.
------------------------------------

	USE solution 1
	EQUILIBRIUM_PHASES 1
	 Thenardite 0 2
	SOLUTION_SPECIES
	SO4-2 = SO4-2
		gamma	     2.9669106E+00    -1.9483220E-01
	REACTION_TEMPERATURE 
	50
	END
-----------------------------------------
Beginning of batch-reaction calculations.
-----------------------------------------

Reaction step 1.

Using solution 1.	Solution after simulation 1.
Using pure phase assemblage 1.	
Using temperature 1.	

-------------------------------Phase assemblage--------------------------------

                                                      Moles in assemblage
Phase               SI  log IAP  log K(T, P)   Initial       Final       Delta

Thenardite        0.00    -0.37     -0.37    2.000e+00   2.816e+00   8.162e-01

-----------------------------Solution composition------------------------------

	Elements           Molality       Moles

	Na                7.074e+00   2.237e+01
	S                 3.537e+00   1.118e+01

----------------------------Description of solution----------------------------

                                       pH  =   6.574      Charge balance
                                       pe  =  10.297      Adjusted to redox equilibrium
      Specific Conductance (µS/cm,  50°C)  = 102127
                          Density (g/cm³)  =   1.46210
                               Volume (L)  =   3.24910
                        Viscosity (mPa s)  =   2.56583
                        Activity of water  =   0.820
                 Ionic strength (mol/kgw)  =   1.060e+01
                       Mass of water (kg)  =   3.162e+00
                 Total alkalinity (eq/kg)  =   3.876e-10
                         Temperature (°C)  =  50.00
                  Electrical balance (eq)  =  -1.235e-09
 Percent error, 100*(Cat-|An|)/(Cat+|An|)  =  -0.00
                               Iterations  =  13
                                  Total H  = 3.510124e+02
                                  Total O  = 2.202415e+02

----------------------------Distribution of species----------------------------

                                               Log       Log       Log    mole V
   Species          Molality    Activity  Molality  Activity     Gamma   cm³/mol

   OH-             3.888e-07   1.684e-07    -6.410    -6.774    -0.363     11.61
   H+              3.868e-07   2.664e-07    -6.413    -6.574    -0.162      0.00
   H2O-0.01        6.465e-10   6.467e-10    -9.189    -9.189     0.000     (0)  
   H2O             5.551e+01   8.197e-01     1.744    -0.086     0.000     18.23
H(0)          1.565e-38
   H2              7.825e-39   1.016e-37   -38.106   -36.993     1.113     16.42
Na            7.074e+00
   Na+             7.069e+00   2.498e+01     0.849     1.398     0.548      2.17
   Na2SO4          2.627e-03   2.280e-02    -2.581    -1.642     0.938     38.85
O(0)          1.805e-12
   O2              9.026e-13   1.037e-11   -12.045   -10.984     1.060     31.92
S(-2)         0.000e+00
   HS-             0.000e+00   0.000e+00  -113.770  -114.133    -0.363     24.98
   H2S             0.000e+00   0.000e+00  -115.080  -114.020     1.060     40.92
   S-2             0.000e+00   0.000e+00  -118.705  -119.790    -1.085     (0)  
   (H2S)2          0.000e+00   0.000e+00  -230.154  -229.093     1.060     28.78
S(6)          3.537e+00
   SO4-2           3.534e+00   6.763e-04     0.548    -3.170    -3.718     (0)  
   Na2SO4          2.627e-03   2.280e-02    -2.581    -1.642     0.938     38.85
   HSO4-           1.623e-09   3.175e-08    -8.790    -7.498     1.291     43.60

------------------------------Saturation indices-------------------------------

  Phase               SI** log IAP   log K(323 K,   1 atm)

  H2(g)           -33.87    -36.99   -3.13  H2
  H2O(g)           -1.00     -0.09    0.92  H2O
  H2S(g)         -112.79   -120.71   -7.91  H2S
  Mirabilite       -0.92     -1.24   -0.32  Na2SO4:10H2O
  O2(g)            -7.95    -10.98   -3.03  O2
  Sulfur          -84.62    -80.28    4.34  S
  Thenardite        0.00     -0.37   -0.37  Na2SO4

**For a gas, SI = log10(fugacity). Fugacity = pressure * phi / 1 atm.
  For ideal gases, phi = 1.

------------------
End of simulation.
------------------

------------------------------------
Reading input data for simulation 3.
------------------------------------

	USE solution 1
	EQUILIBRIUM_PHASES 1
	 Thenardite 0 2
	SOLUTION_SPECIES
	SO4-2 = SO4-2
		gamma	     3.0821160E+00    -1.9566984E-01
	REACTION_TEMPERATURE 
	75
	END
-----------------------------------------
Beginning of batch-reaction calculations.
-----------------------------------------

Reaction step 1.

Using solution 1.	Solution after simulation 1.
Using pure phase assemblage 1.	
Using temperature 1.	

-------------------------------Phase assemblage--------------------------------

                                                      Moles in assemblage
Phase               SI  log IAP  log K(T, P)   Initial       Final       Delta

Thenardite        0.00    -0.52     -0.52    2.000e+00   3.914e+00   1.914e+00

-----------------------------Solution composition------------------------------

	Elements           Molality       Moles

	Na                6.379e+00   2.017e+01
	S                 3.190e+00   1.009e+01

----------------------------Description of solution----------------------------

                                       pH  =   6.282      Charge balance
                                       pe  =   9.769      Adjusted to redox equilibrium
      Specific Conductance (µS/cm,  75°C)  = 141963
                          Density (g/cm³)  =   1.39791
                               Volume (L)  =   3.28671
                        Viscosity (mPa s)  =   1.50316
                        Activity of water  =   0.838
                 Ionic strength (mol/kgw)  =   9.510e+00
                       Mass of water (kg)  =   3.162e+00
                 Total alkalinity (eq/kg)  =   3.876e-10
                         Temperature (°C)  =  75.00
                  Electrical balance (eq)  =  -1.226e-09
 Percent error, 100*(Cat-|An|)/(Cat+|An|)  =  -0.00
                               Iterations  =  17
                                  Total H  = 3.510124e+02
                                  Total O  = 2.158486e+02

----------------------------Distribution of species----------------------------

                                               Log       Log       Log    mole V
   Species          Molality    Activity  Molality  Activity     Gamma   cm³/mol

   OH-             7.810e-07   3.292e-07    -6.107    -6.483    -0.375     10.61
   H+              7.692e-07   5.224e-07    -6.114    -6.282    -0.168      0.00
   H2O-0.01        6.690e-10   6.692e-10    -9.175    -9.174     0.000     (0)  
   H2O             5.551e+01   8.380e-01     1.744    -0.077     0.000     18.48
H(0)          7.350e-37
   H2              3.675e-37   3.662e-36   -36.435   -35.436     0.999     17.43
Na            6.379e+00
   Na+             6.340e+00   1.778e+01     0.802     1.250     0.448      2.05
   Na2SO4          1.982e-02   1.376e-01    -1.703    -0.861     0.842     33.43
O(0)          3.425e-09
   O2              1.712e-09   1.529e-08    -8.766    -7.815     0.951     32.99
S(-2)         0.000e+00
   HS-             0.000e+00   0.000e+00  -109.700  -110.076    -0.375     25.50
   H2S             0.000e+00   0.000e+00  -110.753  -109.802     0.951     43.89
   S-2             0.000e+00   0.000e+00  -114.315  -115.438    -1.123     (0)  
   (H2S)2          0.000e+00   0.000e+00  -221.466  -220.515     0.951     26.89
S(6)          3.190e+00
   SO4-2           3.170e+00   9.649e-04     0.501    -3.016    -3.517     (0)  
   Na2SO4          1.982e-02   1.376e-01    -1.703    -0.861     0.842     33.43
   HSO4-           1.140e-08   1.743e-07    -7.943    -6.759     1.184     44.35

------------------------------Saturation indices-------------------------------

  Phase               SI** log IAP   log K(348 K,   1 atm)

  H2(g)           -32.32    -35.44   -3.12  H2
  H2O(g)           -0.50     -0.08    0.42  H2O
  H2S(g)         -108.42   -116.36   -7.94  H2S
  Mirabilite       -1.23     -1.28   -0.05  Na2SO4:10H2O
  O2(g)            -4.72     -7.82   -3.10  O2
  Sulfur          -81.58    -77.70    3.88  S
  Thenardite        0.00     -0.52   -0.52  Na2SO4

**For a gas, SI = log10(fugacity). Fugacity = pressure * phi / 1 atm.
  For ideal gases, phi = 1.

------------------
End of simulation.
------------------

------------------------------------
Reading input data for simulation 4.
------------------------------------

	USE solution 1
	 USE EQUILIBRIUM_PHASES 1
	SOLUTION_SPECIES
	SO4-2 = SO4-2
		gamma	     3.0975221E+00     -1.9952928E-01
	REACTION_TEMPERATURE 
	100
	END
-----------------------------------------
Beginning of batch-reaction calculations.
-----------------------------------------

Reaction step 1.

Using solution 1.	Solution after simulation 1.
Using pure phase assemblage 1.	
Using temperature 1.	

-------------------------------Phase assemblage--------------------------------

                                                      Moles in assemblage
Phase               SI  log IAP  log K(T, P)   Initial       Final       Delta

Thenardite        0.00    -0.70     -0.70    2.000e+00   4.192e+00   2.192e+00

-----------------------------Solution composition------------------------------

	Elements           Molality       Moles

	Na                6.204e+00   1.962e+01
	S                 3.102e+00   9.808e+00

----------------------------Description of solution----------------------------

                                       pH  =   6.054      Charge balance
                                       pe  =   8.641      Adjusted to redox equilibrium
      Specific Conductance (µS/cm, 100°C)  = 176312
                          Density (g/cm³)  =   1.36135
                               Volume (L)  =   3.34597
                        Viscosity (mPa s)  =   1.06778
                        Activity of water  =   0.845
                 Ionic strength (mol/kgw)  =   9.048e+00
                       Mass of water (kg)  =   3.162e+00
                 Total alkalinity (eq/kg)  =   3.876e-10
                         Temperature (°C)  = 100.00
                  Electrical balance (eq)  =  -1.226e-09
 Percent error, 100*(Cat-|An|)/(Cat+|An|)  =  -0.00
                               Iterations  =  30
                                  Total H  = 3.510124e+02
                                  Total O  = 2.147364e+02

----------------------------Distribution of species----------------------------

                                               Log       Log       Log    mole V
   Species          Molality    Activity  Molality  Activity     Gamma   cm³/mol

   OH-             1.362e-06   5.523e-07    -5.866    -6.258    -0.392      9.96
   H+              1.325e-06   8.835e-07    -5.878    -6.054    -0.176      0.00
   H2O-0.01        6.921e-10   6.923e-10    -9.160    -9.160     0.000     (0)  
   H2O             5.551e+01   8.447e-01     1.744    -0.073     0.000     18.80
H(0)          3.561e-34
   H2              1.780e-34   1.587e-33   -33.750   -32.799     0.950     18.32
Na            6.204e+00
   Na+             6.032e+00   1.497e+01     0.780     1.175     0.395      2.02
   Na2SO4          8.588e-02   5.428e-01    -1.066    -0.265     0.801     29.73
O(0)          2.922e-09
   O2              1.461e-09   1.173e-08    -8.835    -7.931     0.905     33.90
S(-2)         0.000e+00
   HS-             0.000e+00   0.000e+00  -101.190  -101.582    -0.392     25.82
   H2S             0.000e+00   0.000e+00  -102.019  -101.115     0.905     46.17
   S-2             0.000e+00   0.000e+00  -105.489  -106.663    -1.175     (0)  
   (H2S)2          0.000e+00   0.000e+00  -203.967  -203.063     0.905     24.22
S(6)          3.102e+00
   SO4-2           3.016e+00   8.922e-04     0.479    -3.050    -3.529     (0)  
   Na2SO4          8.588e-02   5.428e-01    -1.066    -0.265     0.801     29.73
   HSO4-           3.746e-08   5.649e-07    -7.426    -6.248     1.178     44.95

------------------------------Saturation indices-------------------------------

  Phase               SI** log IAP   log K(373 K,   1 atm)

  H2(g)           -29.71    -32.80   -3.09  H2
  H2O(g)           -0.08     -0.07    0.00  H2O
  H2S(g)          -99.63   -107.64   -8.00  H2S
  Mirabilite       -0.90     -1.43   -0.53  Na2SO4:10H2O
  O2(g)            -4.82     -7.93   -3.11  O2
  Sulfur          -75.21    -71.72    3.48  S
  Thenardite        0.00     -0.70   -0.70  Na2SO4

**For a gas, SI = log10(fugacity). Fugacity = pressure * phi / 1 atm.
  For ideal gases, phi = 1.

------------------
End of simulation.
------------------

------------------------------------
Reading input data for simulation 5.
------------------------------------

	USE solution 1
	 USE EQUILIBRIUM_PHASES 1
	SOLUTION_SPECIES
	SO4-2 = SO4-2
		gamma	      3.0070016E+00     -2.1493896E-01
	REACTION_TEMPERATURE 
	150
	END
-----------------------------------------
Beginning of batch-reaction calculations.
-----------------------------------------

Reaction step 1.

Using solution 1.	Solution after simulation 1.
Using pure phase assemblage 1.	
Using temperature 1.	

-------------------------------Phase assemblage--------------------------------

                                                      Moles in assemblage
Phase               SI  log IAP  log K(T, P)   Initial       Final       Delta

Thenardite        0.00    -1.15     -1.15    2.000e+00   2.488e+00   4.879e-01

-----------------------------Solution composition------------------------------

	Elements           Molality       Moles

	Na                7.282e+00   2.302e+01
	S                 3.641e+00   1.151e+01

----------------------------Description of solution----------------------------

                                       pH  =   5.736      Charge balance
                                       pe  =   7.067      Adjusted to redox equilibrium
      Specific Conductance (µS/cm, 150°C)  = 211878
                          Density (g/cm³)  =   1.35913
                               Volume (L)  =   3.52958
                        Viscosity (mPa s)  =   0.84424
                        Activity of water  =   0.830
                 Ionic strength (mol/kgw)  =   9.515e+00
                       Mass of water (kg)  =   3.162e+00
                 Total alkalinity (eq/kg)  =   3.876e-10
                         Temperature (°C)  = 150.00
                           Pressure (atm)  =  3.90
                  Electrical balance (eq)  =  -1.226e-09
 Percent error, 100*(Cat-|An|)/(Cat+|An|)  =  -0.00
                               Iterations  =  90
                                  Total H  = 3.510124e+02
                                  Total O  = 2.215546e+02

----------------------------Distribution of species----------------------------

                                               Log       Log       Log    mole V
   Species          Molality    Activity  Molality  Activity     Gamma   cm³/mol

   OH-             2.954e-06   1.067e-06    -5.530    -5.972    -0.442      9.79
   H+              2.888e-06   1.835e-06    -5.539    -5.736    -0.197      0.00
   H2O-0.01        7.065e-10   7.067e-10    -9.151    -9.151     0.000     (0)  
   H2O             5.551e+01   8.303e-01     1.744    -0.081     0.000     19.65
H(0)          1.456e-30
   H2              7.281e-31   7.266e-30   -30.138   -29.139     0.999     20.32
Na            7.282e+00
   Na+             6.344e+00   1.555e+01     0.802     1.192     0.389      2.24
   Na2SO4          4.691e-01   3.261e+00    -0.329     0.513     0.842     24.63
O(0)          4.163e-09
   O2              2.082e-09   1.862e-08    -8.682    -7.730     0.952     35.92
S(-2)         0.000e+00
   HS-             0.000e+00   0.000e+00   -90.310   -90.752    -0.442     26.76
   H2S             0.000e+00   0.000e+00   -90.765   -89.813     0.952     50.27
   S-2             0.000e+00   0.000e+00   -93.992   -95.312    -1.320     (0)  
   (H2S)2          0.000e+00   0.000e+00  -181.404  -180.452     0.952     15.19
S(6)          3.641e+00
   SO4-2           3.172e+00   2.922e-04     0.501    -3.534    -4.036     (0)  
   Na2SO4          4.691e-01   3.261e+00    -0.329     0.513     0.842     24.63
   HSO4-           6.504e-08   1.827e-06    -7.187    -5.738     1.449     46.63

------------------------------Saturation indices-------------------------------

  Phase               SI** log IAP   log K(423 K,   4 atm)

  H2(g)           -26.19    -29.14   -2.95  H2
  H2O(g)            0.58     -0.08   -0.66  H2O
  H2S(g)          -88.25    -96.49   -8.23  H2S
  Mirabilite        2.01     -1.96   -3.97  Na2SO4:10H2O
  O2(g)            -4.69     -7.73   -3.04  O2
  Sulfur          -67.03    -64.21    2.82  S
  Thenardite        0.00     -1.15   -1.15  Na2SO4

**For a gas, SI = log10(fugacity). Fugacity = pressure * phi / 1 atm.
  For ideal gases, phi = 1.

------------------
End of simulation.
------------------

------------------------------------
Reading input data for simulation 6.
------------------------------------

	USE solution 1
	 USE EQUILIBRIUM_PHASES 1
	SOLUTION_SPECIES
	SO4-2 = SO4-2
		gamma	      2.8878190E+00     -2.2934673E-01
	REACTION_TEMPERATURE 
	200
	END
-----------------------------------------
Beginning of batch-reaction calculations.
-----------------------------------------

Reaction step 1.

Using solution 1.	Solution after simulation 1.
Using pure phase assemblage 1.	
Using temperature 1.	

-------------------------------Phase assemblage--------------------------------

                                                      Moles in assemblage
Phase               SI  log IAP  log K(T, P)   Initial       Final       Delta

Thenardite       -0.01    -1.72     -1.71    2.000e+00           0  -2.000e+00

-----------------------------Solution composition------------------------------

	Elements           Molality       Moles

	Na                8.855e+00   2.800e+01
	S                 4.428e+00   1.400e+01

----------------------------Description of solution----------------------------

                                       pH  =   5.565      Charge balance
                                       pe  =   5.599      Adjusted to redox equilibrium
      Specific Conductance (µS/cm, 200°C)  = 234125
                          Density (g/cm³)  =   1.36334
                               Volume (L)  =   3.77787
                        Viscosity (mPa s)  =   0.78444
                        Activity of water  =   0.800
                 Ionic strength (mol/kgw)  =   1.102e+01
                       Mass of water (kg)  =   3.162e+00
                 Total alkalinity (eq/kg)  =   3.876e-10
                         Temperature (°C)  = 200.00
                           Pressure (atm)  = 12.30
                  Electrical balance (eq)  =   6.896e-09
 Percent error, 100*(Cat-|An|)/(Cat+|An|)  =   0.00
                               Iterations  =  78
                                  Total H  = 3.510124e+02
                                  Total O  = 2.315062e+02

----------------------------Distribution of species----------------------------

                                               Log       Log       Log    mole V
   Species          Molality    Activity  Molality  Activity     Gamma   cm³/mol

   OH-             4.604e-06   1.412e-06    -5.337    -5.850    -0.513     10.93
   H+              4.586e-06   2.726e-06    -5.339    -5.565    -0.226      0.00
   H2O-0.01        7.070e-10   7.074e-10    -9.151    -9.150     0.000     (0)  
   H2O             5.551e+01   7.998e-01     1.744    -0.097     0.000     20.84
H(0)          1.537e-27
   H2              7.687e-28   1.104e-26   -27.114   -25.957     1.157     23.71
Na            8.855e+00
   Na+             7.348e+00   2.076e+01     0.866     1.317     0.451      3.13
   Na2SO4          7.539e-01   7.124e+00    -0.123     0.853     0.975     20.28
O(0)          4.213e-11
   O2              2.107e-11   2.665e-10   -10.676    -9.574     1.102     39.28
S(-2)         0.000e+00
   HS-             0.000e+00   0.000e+00   -80.995   -81.508    -0.513     29.77
   H2S             0.000e+00   0.000e+00   -81.129   -80.027     1.102     55.87
   S-2             0.000e+00   0.000e+00   -84.053   -85.578    -1.525     (0)  
   (H2S)2          0.000e+00   0.000e+00  -162.112  -161.010     1.102     -4.22
S(6)          4.428e+00
   SO4-2           3.674e+00   4.416e-05     0.565    -4.355    -4.920     (0)  
   Na2SO4          7.539e-01   7.124e+00    -0.123     0.853     0.975     20.28
   HSO4-           1.817e-08   2.089e-06    -7.741    -5.680     2.061     51.25

------------------------------Saturation indices-------------------------------

  Phase               SI** log IAP   log K(473 K,  12 atm)

  H2(g)           -23.20    -25.96   -2.76  H2
  H2O(g)            1.06     -0.10   -1.16  H2O
  H2S(g)          -78.50    -87.07   -8.58  H2S
  Mirabilite        8.08     -2.69  -10.77  Na2SO4:10H2O
  O2(g)            -6.70     -9.57   -2.87  O2
  Sulfur          -60.00    -57.70    2.30  S
  Thenardite       -0.01     -1.72   -1.71  Na2SO4

**For a gas, SI = log10(fugacity). Fugacity = pressure * phi / 1 atm.
  For ideal gases, phi = 1.

------------------
End of simulation.
------------------

------------------------------------
Reading input data for simulation 7.
------------------------------------

	USE solution 1
	 USE EQUILIBRIUM_PHASES 1
	SOLUTION_SPECIES
	SO4-2 = SO4-2
		gamma	      2.9694541E+00     -2.5562108E-01
	REACTION_TEMPERATURE 
	225
	END
-----------------------------------------
Beginning of batch-reaction calculations.
-----------------------------------------

Reaction step 1.

Using solution 1.	Solution after simulation 1.
Using pure phase assemblage 1.	
Using temperature 1.	

-------------------------------Phase assemblage--------------------------------

                                                      Moles in assemblage
Phase               SI  log IAP  log K(T, P)   Initial       Final       Delta

Thenardite       -0.18    -2.23     -2.05    2.000e+00           0  -2.000e+00

-----------------------------Solution composition------------------------------

	Elements           Molality       Moles

	Na                8.855e+00   2.800e+01
	S                 4.428e+00   1.400e+01

----------------------------Description of solution----------------------------

                                       pH  =   5.524      Charge balance
                                       pe  =   5.568      Adjusted to redox equilibrium
      Specific Conductance (µS/cm, 225°C)  = 275505
                          Density (g/cm³)  =   1.31318
                               Volume (L)  =   3.92219
                        Viscosity (mPa s)  =   0.63577 (solute contributions limited to 200 °C)
                        Activity of water  =   0.790
                 Ionic strength (mol/kgw)  =   1.192e+01
                       Mass of water (kg)  =   3.162e+00
                 Total alkalinity (eq/kg)  =   3.876e-10
                         Temperature (°C)  = 225.00
                           Pressure (atm)  = 19.90
                  Electrical balance (eq)  =  -1.150e-09
 Percent error, 100*(Cat-|An|)/(Cat+|An|)  =  -0.00
                               Iterations  =  95
                                  Total H  = 3.510124e+02
                                  Total O  = 2.315062e+02

----------------------------Distribution of species----------------------------

                                               Log       Log       Log    mole V
   Species          Molality    Activity  Molality  Activity     Gamma   cm³/mol

   OH-             5.258e-06   1.453e-06    -5.279    -5.838    -0.558     11.99
   H+              5.253e-06   2.993e-06    -5.280    -5.524    -0.244      0.00
   H2O-0.01        7.012e-10   7.016e-10    -9.154    -9.154     0.000     (0)  
   H2O             5.551e+01   7.896e-01     1.744    -0.103     0.000     21.61
H(0)          1.557e-27
   H2              7.784e-28   1.389e-26   -27.109   -25.857     1.252     26.72
Na            8.855e+00
   Na+             7.947e+00   2.432e+01     0.900     1.386     0.486      4.16
   Na2SO4          4.544e-01   5.157e+00    -0.343     0.712     1.055     17.62
O(0)          4.757e-10
   O2              2.378e-10   3.701e-09    -9.624    -8.432     1.192     42.25
S(-2)         0.000e+00
   H2S             0.000e+00   0.000e+00   -82.343   -81.151     1.192     60.46
   HS-             0.000e+00   0.000e+00   -82.362   -82.920    -0.558     33.19
   S-2             0.000e+00   0.000e+00   -85.093   -86.747    -1.654     (0)  
   (H2S)2          0.000e+00   0.000e+00  -164.549  -163.357     1.192    -22.58
S(6)          4.428e+00
   SO4-2           3.973e+00   1.006e-05     0.599    -4.998    -5.597     (0)  
   Na2SO4          4.544e-01   5.157e+00    -0.343     0.712     1.055     17.62
   HSO4-           3.826e-09   1.188e-06    -8.417    -5.925     2.492     56.33

------------------------------Saturation indices-------------------------------

  Phase               SI** log IAP   log K(498 K,  20 atm)

  H2(g)           -23.21    -25.86   -2.64  H2
  H2O(g)            1.25     -0.10   -1.36  H2O
  H2S(g)          -79.66    -88.44   -8.78  H2S
  Mirabilite       12.15     -3.25  -15.40  Na2SO4:10H2O
  O2(g)            -5.66     -8.43   -2.77  O2
  Sulfur          -61.04    -58.97    2.07  S
  Thenardite       -0.18     -2.23   -2.05  Na2SO4

**For a gas, SI = log10(fugacity). Fugacity = pressure * phi / 1 atm.
  For ideal gases, phi = 1.

------------------
End of simulation.
------------------

------------------------------------
Reading input data for simulation 8.
------------------------------------

