WARNING: Database file from DATABASE keyword is used; command line argument ignored.
   Input file: NaCl-SO4
  Output file: NaCl-SO4.out
Database file: ../database/pitzer.dat

------------------
Reading data base.
------------------

	SOLUTION_MASTER_SPECIES
	SOLUTION_SPECIES
	PHASES
	PITZER
	GAS_BINARY_PARAMETERS
	EXCHANGE_MASTER_SPECIES
	EXCHANGE_SPECIES
	SURFACE_MASTER_SPECIES
	SURFACE_SPECIES
	MEAN_GAMMAS
	END
------------------------------------
Reading input data for simulation 1.
------------------------------------

	DATABASE ../database/pitzer.dat
	SELECTED_OUTPUT 101
	    file                 NaCl-SO4_101.sel
	USER_PUNCH 101
	    headings Mu SC
	    start
	10 PUNCH STR_F$(MU, 20, 12)
	20 PUNCH STR_F$(SC, 20, 10)
	    end
	SOLUTION 1
	 pH 7 charge
	 Na 4.001e3
	 S 2e3
	 Cl 1
	REACTION 1
	 NaCl 1.5 Na2SO4 -1
	 1e-4 11*1 0.9998
	INCREMENTAL_REACTIONS true
	REACTION_TEMPERATURE
	15
	EQUILIBRIUM_PHASES
	Mirabilite 0 10
	Halite 0 0
	USER_GRAPH 1
	-headings x 15.oC(Mirabilite) SI("Halite")
	-chart_title "Na2SO4 -- saturation curves"
	-axis_titles "Na2SO4 / (mol/kgw)" "NaCl / (mol/kgw)" "Saturation Index"
	-axis_scale sy_axis -2 0.01
	-connect_simulations false
	10 graph_x tot("S")
	20 graph_y tot("Cl")
	30 graph_sy SI("Halite")
	-end
	END
-------------------------------------------
Beginning of initial solution calculations.
-------------------------------------------

Initial solution 1.	

-----------------------------Solution composition------------------------------

	Elements           Molality       Moles

	Cl                1.000e-03   1.000e-03
	Na                4.001e+00   4.001e+00
	S                 2.000e+00   2.000e+00

----------------------------Description of solution----------------------------

                                       pH  =   7.397      Charge balance
                                       pe  =   4.000    
      Specific Conductance (µS/cm,  25°C)  = 121684
                          Density (g/cm³)  =   1.21073
                               Volume (L)  =   1.06064
                        Viscosity (mPa s)  =   2.22670
                        Activity of water  =   0.934
                 Ionic strength (mol/kgw)  =   6.001e+00
                       Mass of water (kg)  =   1.000e+00
                 Total alkalinity (eq/kg)  =   1.104e-15
                         Temperature (°C)  =  25.00
                  Electrical balance (eq)  =  -1.119e-12
 Percent error, 100*(Cat-|An|)/(Cat+|An|)  =  -0.00
                               Iterations  =  12
                         Gamma iterations  =   5
                      Osmotic coefficient  =   0.63094
                         Density of water  =   0.99704
                                  Total H  = 1.110124e+02
                                  Total O  = 6.350622e+01

----------------------------Distribution of species----------------------------

                                                    MacInnes  MacInnes
                                MacInnes       Log       Log       Log    mole V
   Species          Molality    Activity  Molality  Activity     Gamma   cm³/mol

   OH-             4.360e-07   2.359e-07    -6.361    -6.627    -0.267      4.71
   H+              7.389e-08   4.008e-08    -7.131    -7.397    -0.266      0.00
   H2O             5.551e+01   9.341e-01     1.744    -0.030     0.000     18.07
Cl            1.000e-03
   Cl-             1.000e-03   6.125e-04    -3.000    -3.213    -0.213     20.09
Na            4.001e+00
   Na+             4.001e+00   1.738e+00     0.602     0.240    -0.362      1.25
S(6)          2.000e+00
   SO4-2           2.000e+00   3.888e-02     0.301    -1.410    -1.711     26.32
   HSO4-           3.621e-07   1.515e-07    -6.441    -6.820    -0.378     42.04

------------------------------Saturation indices-------------------------------

  Phase               SI** log IAP   log K(298 K,   1 atm)

  H2O(g)           -1.53     -0.03    1.50  H2O
  Halite           -4.55     -2.97    1.58  NaCl
  Mirabilite        0.01     -1.23   -1.24  Na2SO4:10H2O
  Thenardite       -0.63     -0.93   -0.30  Na2SO4

**For a gas, SI = log10(fugacity). Fugacity = pressure * phi / 1 atm.
  For ideal gases, phi = 1.

-----------------------------------------
Beginning of batch-reaction calculations.
-----------------------------------------

Reaction step 1.

Using solution 1.	
Using pure phase assemblage 1.	
Using temperature 1.	
Using reaction 1.	

Reaction 1.	

	  1.000e-04 moles of the following reaction have been added:

	                 Relative
	Reactant            moles

	Na2SO4              -1.00000
	NaCl                 1.50000

	                 Relative
	Element             moles
	Cl                   1.50000
	Na                  -0.50000
	O                   -4.00000
	S                   -1.00000

-------------------------------Phase assemblage--------------------------------

                                                      Moles in assemblage
Phase               SI  log IAP  log K(T, P)   Initial       Final       Delta

Halite           -4.71    -3.15      1.56    0.000e+00           0   0.000e+00
Mirabilite        0.00    -1.71     -1.71    1.000e+01   1.126e+01   1.263e+00

-----------------------------Solution composition------------------------------

	Elements           Molality       Moles

	Cl                1.489e-03   1.150e-03
	Na                1.909e+00   1.475e+00
	S                 9.540e-01   7.369e-01

----------------------------Description of solution----------------------------

                                       pH  =   7.496      Charge balance
                                       pe  =   4.000      Adjusted to redox equilibrium
      Specific Conductance (µS/cm,  15°C)  = 72031
                          Density (g/cm³)  =   1.11159
                               Volume (L)  =   0.78914
                        Viscosity (mPa s)  =   1.75287
                        Activity of water  =   0.968
                 Ionic strength (mol/kgw)  =   2.863e+00
                       Mass of water (kg)  =   7.725e-01
                 Total alkalinity (eq/kg)  =   1.763e-15
                         Temperature (°C)  =  15.00
                  Electrical balance (eq)  =  -6.280e-12
 Percent error, 100*(Cat-|An|)/(Cat+|An|)  =  -0.00
                               Iterations  =  13
                         Gamma iterations  =   4
                      Osmotic coefficient  =   0.62593
                         Density of water  =   0.99910
                                  Total H  = 8.575278e+01
                                  Total O  = 4.582406e+01

----------------------------Distribution of species----------------------------

                                                    MacInnes  MacInnes
                                MacInnes       Log       Log       Log    mole V
   Species          Molality    Activity  Molality  Activity     Gamma   cm³/mol

   OH-             2.583e-07   1.376e-07    -6.588    -6.862    -0.274     -0.08
   H+              7.294e-08   3.193e-08    -7.137    -7.496    -0.359      0.00
   H2O             5.551e+01   9.682e-01     1.744    -0.014     0.000     18.03
Cl            1.489e-03
   Cl-             1.489e-03   8.301e-04    -2.827    -3.081    -0.254     19.12
Na            1.909e+00
   Na+             1.909e+00   8.510e-01     0.281    -0.070    -0.351      0.06
S(6)          9.540e-01
   SO4-2           9.540e-01   3.744e-02    -0.020    -1.427    -1.406     21.54
   HSO4-           1.854e-07   9.433e-08    -6.732    -7.025    -0.293     40.74

------------------------------Saturation indices-------------------------------

  Phase               SI** log IAP   log K(288 K,   1 atm)

  H2O(g)           -1.78     -0.01    1.77  H2O
  Halite           -4.71     -3.15    1.56  NaCl
  Mirabilite        0.00     -1.71   -1.71  Na2SO4:10H2O
  Thenardite       -1.31     -1.57   -0.25  Na2SO4

**For a gas, SI = log10(fugacity). Fugacity = pressure * phi / 1 atm.
  For ideal gases, phi = 1.

Reaction step 2.

Using solution 1.	
Using pure phase assemblage 1.	
Using temperature 1.	
Using reaction 1.	

Reaction 1.	

	  1.000e+00 moles of the following reaction have been added:

	                 Relative
	Reactant            moles

	Na2SO4              -1.00000
	NaCl                 1.50000

	                 Relative
	Element             moles
	Cl                   1.50000
	Na                  -0.50000
	O                   -4.00000
	S                   -1.00000

-------------------------------Phase assemblage--------------------------------

                                                      Moles in assemblage
Phase               SI  log IAP  log K(T, P)   Initial       Final       Delta

Halite           -1.34     0.21      1.56    0.000e+00           0   0.000e+00
Mirabilite        0.00    -1.71     -1.71    1.100e+01   1.046e+01  -5.353e-01

-----------------------------Solution composition------------------------------

	Elements           Molality       Moles

	Cl                1.638e+00   1.501e+00
	Na                2.807e+00   2.572e+00
	S                 5.842e-01   5.353e-01

----------------------------Description of solution----------------------------

                                       pH  =   7.276      Charge balance
                                       pe  =   4.000      Adjusted to redox equilibrium
      Specific Conductance (µS/cm,  15°C)  = 120710
                          Density (g/cm³)  =   1.12672
                               Volume (L)  =   0.95858
                        Viscosity (mPa s)  =   1.66458
                        Activity of water  =   0.924
                 Ionic strength (mol/kgw)  =   3.391e+00
                       Mass of water (kg)  =   9.163e-01
                 Total alkalinity (eq/kg)  =   3.182e-16
                         Temperature (°C)  =  15.00
                  Electrical balance (eq)  =  -6.634e-12
 Percent error, 100*(Cat-|An|)/(Cat+|An|)  =  -0.00
                               Iterations  =  17
                         Gamma iterations  =   4
                      Osmotic coefficient  =   0.87365
                         Density of water  =   0.99910
                                  Total H  = 1.017195e+02
                                  Total O  = 5.300080e+01

----------------------------Distribution of species----------------------------

                                                    MacInnes  MacInnes
                                MacInnes       Log       Log       Log    mole V
   Species          Molality    Activity  Molality  Activity     Gamma   cm³/mol

   OH-             1.677e-07   7.912e-08    -6.775    -7.102    -0.326      0.63
   H+              5.076e-08   5.297e-08    -7.295    -7.276     0.019      0.00
   H2O             5.551e+01   9.239e-01     1.744    -0.034     0.000     18.03
Cl            1.638e+00
   Cl-             1.638e+00   9.148e-01     0.214    -0.039    -0.253     19.25
Na            2.807e+00
   Na+             2.807e+00   1.789e+00     0.448     0.253    -0.196      0.25
S(6)          5.842e-01
   SO4-2           5.842e-01   1.354e-02    -0.233    -1.868    -1.635     22.28
   HSO4-           1.170e-07   5.659e-08    -6.932    -7.247    -0.315     40.84

------------------------------Saturation indices-------------------------------

  Phase               SI** log IAP   log K(288 K,   1 atm)

  H2O(g)           -1.80     -0.03    1.77  H2O
  Halite           -1.34      0.21    1.56  NaCl
  Mirabilite        0.00     -1.71   -1.71  Na2SO4:10H2O
  Thenardite       -1.11     -1.36   -0.25  Na2SO4

**For a gas, SI = log10(fugacity). Fugacity = pressure * phi / 1 atm.
  For ideal gases, phi = 1.

Reaction step 3.

Using solution 1.	
Using pure phase assemblage 1.	
Using temperature 1.	
Using reaction 1.	

Reaction 1.	

	  1.000e+00 moles of the following reaction have been added:

	                 Relative
	Reactant            moles

	Na2SO4              -1.00000
	NaCl                 1.50000

	                 Relative
	Element             moles
	Cl                   1.50000
	Na                  -0.50000
	O                   -4.00000
	S                   -1.00000

-------------------------------Phase assemblage--------------------------------

                                                      Moles in assemblage
Phase               SI  log IAP  log K(T, P)   Initial       Final       Delta

Halite           -0.90     0.66      1.56    0.000e+00           0   0.000e+00
Mirabilite        0.00    -1.71     -1.71    1.000e+01   9.437e+00  -5.628e-01

-----------------------------Solution composition------------------------------

	Elements           Molality       Moles

	Cl                2.725e+00   3.001e+00
	Na                3.747e+00   4.127e+00
	S                 5.110e-01   5.628e-01

----------------------------Description of solution----------------------------

                                       pH  =   7.161      Charge balance
                                       pe  =   4.000      Adjusted to redox equilibrium
      Specific Conductance (µS/cm,  15°C)  = 149864
                          Density (g/cm³)  =   1.15359
                               Volume (L)  =   1.17611
                        Viscosity (mPa s)  =   1.82178
                        Activity of water  =   0.884
                 Ionic strength (mol/kgw)  =   4.258e+00
                       Mass of water (kg)  =   1.101e+00
                 Total alkalinity (eq/kg)  =  -2.357e-16
                         Temperature (°C)  =  15.00
                  Electrical balance (eq)  =  -5.675e-12
 Percent error, 100*(Cat-|An|)/(Cat+|An|)  =  -0.00
                               Iterations  =  18
                         Gamma iterations  =   4
                      Osmotic coefficient  =   0.97799
                         Density of water  =   0.99910
                                  Total H  = 1.222707e+02
                                  Total O  = 6.338662e+01

----------------------------Distribution of species----------------------------

                                                    MacInnes  MacInnes
                                MacInnes       Log       Log       Log    mole V
   Species          Molality    Activity  Molality  Activity     Gamma   cm³/mol

   OH-             1.335e-07   5.807e-08    -6.874    -7.236    -0.362      1.76
   H+              3.890e-08   6.908e-08    -7.410    -7.161     0.249      0.00
   H2O             5.551e+01   8.842e-01     1.744    -0.053     0.000     18.03
Cl            2.725e+00
   Cl-             2.725e+00   1.541e+00     0.435     0.188    -0.248     19.44
Na            3.747e+00
   Na+             3.747e+00   2.942e+00     0.574     0.469    -0.105      0.53
S(6)          5.110e-01
   SO4-2           5.110e-01   7.761e-03    -0.292    -2.110    -1.819     23.39
   HSO4-           9.464e-08   4.229e-08    -7.024    -7.374    -0.350     40.99

------------------------------Saturation indices-------------------------------

  Phase               SI** log IAP   log K(288 K,   1 atm)

  H2O(g)           -1.82     -0.05    1.77  H2O
  Halite           -0.90      0.66    1.56  NaCl
  Mirabilite        0.00     -1.71   -1.71  Na2SO4:10H2O
  Thenardite       -0.92     -1.17   -0.25  Na2SO4

**For a gas, SI = log10(fugacity). Fugacity = pressure * phi / 1 atm.
  For ideal gases, phi = 1.

Reaction step 4.

Using solution 1.	
Using pure phase assemblage 1.	
Using temperature 1.	
Using reaction 1.	

Reaction 1.	

	  1.000e+00 moles of the following reaction have been added:

	                 Relative
	Reactant            moles

	Na2SO4              -1.00000
	NaCl                 1.50000

	                 Relative
	Element             moles
	Cl                   1.50000
	Na                  -0.50000
	O                   -4.00000
	S                   -1.00000

-------------------------------Phase assemblage--------------------------------

                                                      Moles in assemblage
Phase               SI  log IAP  log K(T, P)   Initial       Final       Delta

Halite           -0.64     0.91      1.56    0.000e+00           0   0.000e+00
Mirabilite        0.00    -1.71     -1.71    9.000e+00   8.354e+00  -6.458e-01

-----------------------------Solution composition------------------------------

	Elements           Molality       Moles

	Cl                3.472e+00   4.501e+00
	Na                4.468e+00   5.793e+00
	S                 4.981e-01   6.458e-01

----------------------------Description of solution----------------------------

                                       pH  =   7.100      Charge balance
                                       pe  =   4.000      Adjusted to redox equilibrium
      Specific Conductance (µS/cm,  15°C)  = 164629
                          Density (g/cm³)  =   1.17466
                               Volume (L)  =   1.40577
                        Viscosity (mPa s)  =   1.98303
                        Activity of water  =   0.853
                 Ionic strength (mol/kgw)  =   4.966e+00
                       Mass of water (kg)  =   1.297e+00
                 Total alkalinity (eq/kg)  =   6.129e-16
                         Temperature (°C)  =  15.00
                  Electrical balance (eq)  =  -4.578e-12
 Percent error, 100*(Cat-|An|)/(Cat+|An|)  =  -0.00
                               Iterations  =  17
                         Gamma iterations  =   4
                      Osmotic coefficient  =   1.04605
                         Density of water  =   0.99910
                                  Total H  = 1.439295e+02
                                  Total O  = 7.454775e+01

----------------------------Distribution of species----------------------------

                                                    MacInnes  MacInnes
                                MacInnes       Log       Log       Log    mole V
   Species          Molality    Activity  Molality  Activity     Gamma   cm³/mol

   OH-             1.179e-07   4.866e-08    -6.929    -7.313    -0.384      2.68
   H+              3.116e-08   7.952e-08    -7.506    -7.100     0.407      0.00
   H2O             5.551e+01   8.530e-01     1.744    -0.069     0.000     18.03
Cl            3.472e+00
   Cl-             3.472e+00   1.997e+00     0.541     0.300    -0.240     19.59
Na            4.468e+00
   Na+             4.468e+00   4.084e+00     0.650     0.611    -0.039      0.74
S(6)          4.981e-01
   SO4-2           4.981e-01   5.771e-03    -0.303    -2.239    -1.936     24.21
   HSO4-           8.672e-08   3.621e-08    -7.062    -7.441    -0.379     41.09

------------------------------Saturation indices-------------------------------

  Phase               SI** log IAP   log K(288 K,   1 atm)

  H2O(g)           -1.84     -0.07    1.77  H2O
  Halite           -0.64      0.91    1.56  NaCl
  Mirabilite        0.00     -1.71   -1.71  Na2SO4:10H2O
  Thenardite       -0.76     -1.02   -0.25  Na2SO4

**For a gas, SI = log10(fugacity). Fugacity = pressure * phi / 1 atm.
  For ideal gases, phi = 1.

Reaction step 5.

Using solution 1.	
Using pure phase assemblage 1.	
Using temperature 1.	
Using reaction 1.	

Reaction 1.	

	  1.000e+00 moles of the following reaction have been added:

	                 Relative
	Reactant            moles

	Na2SO4              -1.00000
	NaCl                 1.50000

	                 Relative
	Element             moles
	Cl                   1.50000
	Na                  -0.50000
	O                   -4.00000
	S                   -1.00000

-------------------------------Phase assemblage--------------------------------

                                                      Moles in assemblage
Phase               SI  log IAP  log K(T, P)   Initial       Final       Delta

Halite           -0.47     1.08      1.56    0.000e+00           0   0.000e+00
Mirabilite        0.00    -1.71     -1.71    8.000e+00   7.248e+00  -7.515e-01

-----------------------------Solution composition------------------------------

	Elements           Molality       Moles

	Cl                4.012e+00   6.001e+00
	Na                5.017e+00   7.504e+00
	S                 5.024e-01   7.515e-01

----------------------------Description of solution----------------------------

                                       pH  =   7.064      Charge balance
                                       pe  =   4.000      Adjusted to redox equilibrium
      Specific Conductance (µS/cm,  15°C)  = 172364
                          Density (g/cm³)  =   1.19053
                               Volume (L)  =   1.64061
                        Viscosity (mPa s)  =   2.12553
                        Activity of water  =   0.828
                 Ionic strength (mol/kgw)  =   5.519e+00
                       Mass of water (kg)  =   1.496e+00
                 Total alkalinity (eq/kg)  =   7.149e-16
                         Temperature (°C)  =  15.00
                  Electrical balance (eq)  =  -3.922e-12
 Percent error, 100*(Cat-|An|)/(Cat+|An|)  =  -0.00
                               Iterations  =  17
                         Gamma iterations  =   4
                      Osmotic coefficient  =   1.09624
                         Density of water  =   0.99910
                                  Total H  = 1.660443e+02
                                  Total O  = 8.602810e+01

----------------------------Distribution of species----------------------------

                                                    MacInnes  MacInnes
                                MacInnes       Log       Log       Log    mole V
   Species          Molality    Activity  Molality  Activity     Gamma   cm³/mol

   OH-             1.094e-07   4.358e-08    -6.961    -7.361    -0.400      3.38
   H+              2.592e-08   8.624e-08    -7.586    -7.064     0.522      0.00
   H2O             5.551e+01   8.284e-01     1.744    -0.082     0.000     18.03
Cl            4.012e+00
   Cl-             4.012e+00   2.348e+00     0.603     0.371    -0.233     19.69
Na            5.017e+00
   Na+             5.017e+00   5.158e+00     0.700     0.713     0.012      0.89
S(6)          5.024e-01
   SO4-2           5.024e-01   4.847e-03    -0.299    -2.315    -2.016     24.81
   HSO4-           8.350e-08   3.298e-08    -7.078    -7.482    -0.403     41.17

------------------------------Saturation indices-------------------------------

  Phase               SI** log IAP   log K(288 K,   1 atm)

  H2O(g)           -1.85     -0.08    1.77  H2O
  Halite           -0.47      1.08    1.56  NaCl
  Mirabilite        0.00     -1.71   -1.71  Na2SO4:10H2O
  Thenardite       -0.64     -0.89   -0.25  Na2SO4

**For a gas, SI = log10(fugacity). Fugacity = pressure * phi / 1 atm.
  For ideal gases, phi = 1.

Reaction step 6.

Using solution 1.	
Using pure phase assemblage 1.	
Using temperature 1.	
Using reaction 1.	

Reaction 1.	

	  1.000e+00 moles of the following reaction have been added:

	                 Relative
	Reactant            moles

	Na2SO4              -1.00000
	NaCl                 1.50000

	                 Relative
	Element             moles
	Cl                   1.50000
	Na                  -0.50000
	O                   -4.00000
	S                   -1.00000

-------------------------------Phase assemblage--------------------------------

                                                      Moles in assemblage
Phase               SI  log IAP  log K(T, P)   Initial       Final       Delta

Halite           -0.35     1.21      1.56    0.000e+00           0   0.000e+00
Mirabilite        0.00    -1.71     -1.71    7.000e+00   6.129e+00  -8.706e-01

-----------------------------Solution composition------------------------------

	Elements           Molality       Moles

	Cl                4.419e+00   7.501e+00
	Na                5.445e+00   9.242e+00
	S                 5.129e-01   8.706e-01

----------------------------Description of solution----------------------------

                                       pH  =   7.043      Charge balance
                                       pe  =   4.000      Adjusted to redox equilibrium
      Specific Conductance (µS/cm,  15°C)  = 176582
                          Density (g/cm³)  =   1.20274
                               Volume (L)  =   1.87855
                        Viscosity (mPa s)  =   2.24852
                        Activity of water  =   0.809
                 Ionic strength (mol/kgw)  =   5.958e+00
                       Mass of water (kg)  =   1.697e+00
                 Total alkalinity (eq/kg)  =   2.139e-15
                         Temperature (°C)  =  15.00
                  Electrical balance (eq)  =   3.216e-09
 Percent error, 100*(Cat-|An|)/(Cat+|An|)  =   0.00
                               Iterations  =  16
                         Gamma iterations  =   4
                      Osmotic coefficient  =   1.13517
                         Density of water  =   0.99910
                                  Total H  = 1.884274e+02
                                  Total O  = 9.769632e+01

----------------------------Distribution of species----------------------------

                                                    MacInnes  MacInnes
                                MacInnes       Log       Log       Log    mole V
   Species          Molality    Activity  Molality  Activity     Gamma   cm³/mol

   OH-             1.044e-07   4.051e-08    -6.981    -7.392    -0.411      3.94
   H+              2.223e-08   9.057e-08    -7.653    -7.043     0.610      0.00
   H2O             5.551e+01   8.088e-01     1.744    -0.092     0.000     18.03
Cl            4.419e+00
   Cl-             4.419e+00   2.625e+00     0.645     0.419    -0.226     19.77
Na            5.445e+00
   Na+             5.445e+00   6.147e+00     0.736     0.789     0.053      1.01
S(6)          5.129e-01
   SO4-2           5.129e-01   4.339e-03    -0.290    -2.363    -2.073     25.27
   HSO4-           8.217e-08   3.100e-08    -7.085    -7.509    -0.423     41.23

------------------------------Saturation indices-------------------------------

  Phase               SI** log IAP   log K(288 K,   1 atm)

  H2O(g)           -1.86     -0.09    1.77  H2O
  Halite           -0.35      1.21    1.56  NaCl
  Mirabilite        0.00     -1.71   -1.71  Na2SO4:10H2O
  Thenardite       -0.53     -0.79   -0.25  Na2SO4

**For a gas, SI = log10(fugacity). Fugacity = pressure * phi / 1 atm.
  For ideal gases, phi = 1.

Reaction step 7.

Using solution 1.	
Using pure phase assemblage 1.	
Using temperature 1.	
Using reaction 1.	

Reaction 1.	

	  1.000e+00 moles of the following reaction have been added:

	                 Relative
	Reactant            moles

	Na2SO4              -1.00000
	NaCl                 1.50000

	                 Relative
	Element             moles
	Cl                   1.50000
	Na                  -0.50000
	O                   -4.00000
	S                   -1.00000

-------------------------------Phase assemblage--------------------------------

                                                      Moles in assemblage
Phase               SI  log IAP  log K(T, P)   Initial       Final       Delta

Halite           -0.25     1.30      1.56    0.000e+00           0   0.000e+00
Mirabilite        0.00    -1.71     -1.71    6.000e+00   5.001e+00  -9.991e-01

-----------------------------Solution composition------------------------------

	Elements           Molality       Moles

	Cl                4.736e+00   9.001e+00
	Na                5.787e+00   1.100e+01
	S                 5.257e-01   9.991e-01

----------------------------Description of solution----------------------------

                                       pH  =   7.030      Charge balance
                                       pe  =   4.000      Adjusted to redox equilibrium
      Specific Conductance (µS/cm,  15°C)  = 178927
                          Density (g/cm³)  =   1.21239
                               Volume (L)  =   2.11865
                        Viscosity (mPa s)  =   2.35458
                        Activity of water  =   0.793
                 Ionic strength (mol/kgw)  =   6.313e+00
                       Mass of water (kg)  =   1.901e+00
                 Total alkalinity (eq/kg)  =   2.751e-15
                         Temperature (°C)  =  15.00
                  Electrical balance (eq)  =   5.070e-09
 Percent error, 100*(Cat-|An|)/(Cat+|An|)  =   0.00
                               Iterations  =  15
                         Gamma iterations  =   4
                      Osmotic coefficient  =   1.16629
                         Density of water  =   0.99910
                                  Total H  = 2.109970e+02
                                  Total O  = 1.094950e+02

----------------------------Distribution of species----------------------------

                                                    MacInnes  MacInnes
                                MacInnes       Log       Log       Log    mole V
   Species          Molality    Activity  Molality  Activity     Gamma   cm³/mol

   OH-             1.012e-07   3.851e-08    -6.995    -7.414    -0.420      4.39
   H+              1.953e-08   9.339e-08    -7.709    -7.030     0.680      0.00
   H2O             5.551e+01   7.928e-01     1.744    -0.101     0.000     18.03
Cl            4.736e+00
   Cl-             4.736e+00   2.850e+00     0.675     0.455    -0.221     19.84
Na            5.787e+00
   Na+             5.787e+00   7.047e+00     0.762     0.848     0.086      1.10
S(6)          5.257e-01
   SO4-2           5.257e-01   4.028e-03    -0.279    -2.395    -2.116     25.62
   HSO4-           8.171e-08   2.968e-08    -7.088    -7.528    -0.440     41.27

------------------------------Saturation indices-------------------------------

  Phase               SI** log IAP   log K(288 K,   1 atm)

  H2O(g)           -1.87     -0.10    1.77  H2O
  Halite           -0.25      1.30    1.56  NaCl
  Mirabilite        0.00     -1.71   -1.71  Na2SO4:10H2O
  Thenardite       -0.45     -0.70   -0.25  Na2SO4

**For a gas, SI = log10(fugacity). Fugacity = pressure * phi / 1 atm.
  For ideal gases, phi = 1.

Reaction step 8.

Using solution 1.	
Using pure phase assemblage 1.	
Using temperature 1.	
Using reaction 1.	

Reaction 1.	

	  1.000e+00 moles of the following reaction have been added:

	                 Relative
	Reactant            moles

	Na2SO4              -1.00000
	NaCl                 1.50000

	                 Relative
	Element             moles
	Cl                   1.50000
	Na                  -0.50000
	O                   -4.00000
	S                   -1.00000

-------------------------------Phase assemblage--------------------------------

                                                      Moles in assemblage
Phase               SI  log IAP  log K(T, P)   Initial       Final       Delta

Halite           -0.18     1.38      1.56    0.000e+00           0   0.000e+00
Mirabilite        0.00    -1.71     -1.71    5.000e+00   3.865e+00  -1.135e+00

-----------------------------Solution composition------------------------------

	Elements           Molality       Moles

	Cl                4.988e+00   1.050e+01
	Na                6.066e+00   1.277e+01
	S                 5.390e-01   1.135e+00

----------------------------Description of solution----------------------------

                                       pH  =   7.021      Charge balance
                                       pe  =   4.000      Adjusted to redox equilibrium
      Specific Conductance (µS/cm,  15°C)  = 180221
                          Density (g/cm³)  =   1.22019
                               Volume (L)  =   2.36038
                        Viscosity (mPa s)  =   2.44655
                        Activity of water  =   0.780
                 Ionic strength (mol/kgw)  =   6.605e+00
                       Mass of water (kg)  =   2.105e+00
                 Total alkalinity (eq/kg)  =   1.716e-15
                         Temperature (°C)  =  15.00
                  Electrical balance (eq)  =   4.498e-09
 Percent error, 100*(Cat-|An|)/(Cat+|An|)  =   0.00
                               Iterations  =  14
                         Gamma iterations  =   3
                      Osmotic coefficient  =   1.19173
                         Density of water  =   0.99910
                                  Total H  = 2.337069e+02
                                  Total O  = 1.213919e+02

----------------------------Distribution of species----------------------------

                                                    MacInnes  MacInnes
                                MacInnes       Log       Log       Log    mole V
   Species          Molality    Activity  Molality  Activity     Gamma   cm³/mol

   OH-             9.916e-08   3.715e-08    -7.004    -7.430    -0.426      4.76
   H+              1.750e-08   9.522e-08    -7.757    -7.021     0.736      0.00
   H2O             5.551e+01   7.797e-01     1.744    -0.108     0.000     18.03
Cl            4.988e+00
   Cl-             4.988e+00   3.036e+00     0.698     0.482    -0.216     19.89
Na            6.066e+00
   Na+             6.066e+00   7.865e+00     0.783     0.896     0.113      1.18
S(6)          5.390e-01
   SO4-2           5.390e-01   3.824e-03    -0.268    -2.417    -2.149     25.91
   HSO4-           8.166e-08   2.873e-08    -7.088    -7.542    -0.454     41.30

------------------------------Saturation indices-------------------------------

  Phase               SI** log IAP   log K(288 K,   1 atm)

  H2O(g)           -1.88     -0.11    1.77  H2O
  Halite           -0.18      1.38    1.56  NaCl
  Mirabilite        0.00     -1.71   -1.71  Na2SO4:10H2O
  Thenardite       -0.37     -0.63   -0.25  Na2SO4

**For a gas, SI = log10(fugacity). Fugacity = pressure * phi / 1 atm.
  For ideal gases, phi = 1.

Reaction step 9.

Using solution 1.	
Using pure phase assemblage 1.	
Using temperature 1.	
Using reaction 1.	

Reaction 1.	

	  1.000e+00 moles of the following reaction have been added:

	                 Relative
	Reactant            moles

	Na2SO4              -1.00000
	NaCl                 1.50000

	                 Relative
	Element             moles
	Cl                   1.50000
	Na                  -0.50000
	O                   -4.00000
	S                   -1.00000

-------------------------------Phase assemblage--------------------------------

                                                      Moles in assemblage
Phase               SI  log IAP  log K(T, P)   Initial       Final       Delta

Halite           -0.12     1.44      1.56    0.000e+00           0   0.000e+00
Mirabilite       -0.00    -1.71     -1.71    3.865e+00   2.724e+00  -1.141e+00

-----------------------------Solution composition------------------------------

	Elements           Molality       Moles

	Cl                5.194e+00   1.200e+01
	Na                6.298e+00   1.455e+01
	S                 5.520e-01   1.276e+00

----------------------------Description of solution----------------------------

                                       pH  =   7.016      Charge balance
                                       pe  =   4.000      Adjusted to redox equilibrium
      Specific Conductance (µS/cm,  15°C)  = 180899
                          Density (g/cm³)  =   1.22662
                               Volume (L)  =   2.60339
                        Viscosity (mPa s)  =   2.52687
                        Activity of water  =   0.769
                 Ionic strength (mol/kgw)  =   6.850e+00
                       Mass of water (kg)  =   2.311e+00
                 Total alkalinity (eq/kg)  =   1.848e-15
                         Temperature (°C)  =  15.00
                  Electrical balance (eq)  =   4.239e-09
 Percent error, 100*(Cat-|An|)/(Cat+|An|)  =   0.00
                               Iterations  =  10
                         Gamma iterations  =   3
                      Osmotic coefficient  =   1.21292
                         Density of water  =   0.99910
                                  Total H  = 2.565275e+02
                                  Total O  = 1.333664e+02

----------------------------Distribution of species----------------------------

                                                    MacInnes  MacInnes
                                MacInnes       Log       Log       Log    mole V
   Species          Molality    Activity  Molality  Activity     Gamma   cm³/mol

   OH-             9.776e-08   3.617e-08    -7.010    -7.442    -0.432      5.06
   H+              1.592e-08   9.639e-08    -7.798    -7.016     0.782      0.00
   H2O             5.551e+01   7.686e-01     1.744    -0.114     0.000     18.03
Cl            5.194e+00
   Cl-             5.194e+00   3.192e+00     0.715     0.504    -0.211     19.93
Na            6.298e+00
   Na+             6.298e+00   8.605e+00     0.799     0.935     0.136      1.24
S(6)          5.520e-01
   SO4-2           5.520e-01   3.684e-03    -0.258    -2.434    -2.176     26.14
   HSO4-           8.184e-08   2.801e-08    -7.087    -7.553    -0.466     41.33

------------------------------Saturation indices-------------------------------

  Phase               SI** log IAP   log K(288 K,   1 atm)

  H2O(g)           -1.88     -0.11    1.77  H2O
  Halite           -0.12      1.44    1.56  NaCl
  Mirabilite       -0.00     -1.71   -1.71  Na2SO4:10H2O
  Thenardite       -0.31     -0.56   -0.25  Na2SO4

**For a gas, SI = log10(fugacity). Fugacity = pressure * phi / 1 atm.
  For ideal gases, phi = 1.

Reaction step 10.

Using solution 1.	
Using pure phase assemblage 1.	
Using temperature 1.	
Using reaction 1.	

Reaction 1.	

	  1.000e+00 moles of the following reaction have been added:

	                 Relative
	Reactant            moles

	Na2SO4              -1.00000
	NaCl                 1.50000

	                 Relative
	Element             moles
	Cl                   1.50000
	Na                  -0.50000
	O                   -4.00000
	S                   -1.00000

-------------------------------Phase assemblage--------------------------------

                                                      Moles in assemblage
Phase               SI  log IAP  log K(T, P)   Initial       Final       Delta

Halite           -0.07     1.49      1.56    0.000e+00           0   0.000e+00
Mirabilite        0.00    -1.71     -1.71    2.724e+00   1.579e+00  -1.146e+00

-----------------------------Solution composition------------------------------

	Elements           Molality       Moles

	Cl                5.364e+00   1.350e+01
	Na                6.493e+00   1.634e+01
	S                 5.646e-01   1.421e+00

----------------------------Description of solution----------------------------

                                       pH  =   7.013      Charge balance
                                       pe  =   4.000      Adjusted to redox equilibrium
      Specific Conductance (µS/cm,  15°C)  = 181203
                          Density (g/cm³)  =   1.23201
                               Volume (L)  =   2.84744
                        Viscosity (mPa s)  =   2.59751
                        Activity of water  =   0.759
                 Ionic strength (mol/kgw)  =   7.057e+00
                       Mass of water (kg)  =   2.517e+00
                 Total alkalinity (eq/kg)  =   7.449e-16
                         Temperature (°C)  =  15.00
                  Electrical balance (eq)  =   4.140e-09
 Percent error, 100*(Cat-|An|)/(Cat+|An|)  =   0.00
                               Iterations  =   9
                         Gamma iterations  =   3
                      Osmotic coefficient  =   1.23082
                         Density of water  =   0.99910
                                  Total H  = 2.794378e+02
                                  Total O  = 1.454036e+02

----------------------------Distribution of species----------------------------

                                                    MacInnes  MacInnes
                                MacInnes       Log       Log       Log    mole V
   Species          Molality    Activity  Molality  Activity     Gamma   cm³/mol

   OH-             9.680e-08   3.546e-08    -7.014    -7.450    -0.436      5.32
   H+              1.467e-08   9.714e-08    -7.833    -7.013     0.821      0.00
   H2O             5.551e+01   7.593e-01     1.744    -0.120     0.000     18.03
Cl            5.364e+00
   Cl-             5.364e+00   3.325e+00     0.729     0.522    -0.208     19.96
Na            6.493e+00
   Na+             6.493e+00   9.277e+00     0.812     0.967     0.155      1.29
S(6)          5.646e-01
   SO4-2           5.646e-01   3.583e-03    -0.248    -2.446    -2.197     26.34
   HSO4-           8.213e-08   2.746e-08    -7.086    -7.561    -0.476     41.36

------------------------------Saturation indices-------------------------------

  Phase               SI** log IAP   log K(288 K,   1 atm)

  H2O(g)           -1.89     -0.12    1.77  H2O
  Halite           -0.07      1.49    1.56  NaCl
  Mirabilite        0.00     -1.71   -1.71  Na2SO4:10H2O
  Thenardite       -0.26     -0.51   -0.25  Na2SO4

**For a gas, SI = log10(fugacity). Fugacity = pressure * phi / 1 atm.
  For ideal gases, phi = 1.

Reaction step 11.

Using solution 1.	
Using pure phase assemblage 1.	
Using temperature 1.	
Using reaction 1.	

Reaction 1.	

	  1.000e+00 moles of the following reaction have been added:

	                 Relative
	Reactant            moles

	Na2SO4              -1.00000
	NaCl                 1.50000

	                 Relative
	Element             moles
	Cl                   1.50000
	Na                  -0.50000
	O                   -4.00000
	S                   -1.00000

-------------------------------Phase assemblage--------------------------------

                                                      Moles in assemblage
Phase               SI  log IAP  log K(T, P)   Initial       Final       Delta

Halite           -0.02     1.53      1.56    0.000e+00           0   0.000e+00
Mirabilite        0.00    -1.71     -1.71    1.579e+00   4.295e-01  -1.149e+00

-----------------------------Solution composition------------------------------

	Elements           Molality       Moles

	Cl                5.507e+00   1.500e+01
	Na                6.659e+00   1.814e+01
	S                 5.765e-01   1.570e+00

----------------------------Description of solution----------------------------

                                       pH  =   7.011      Charge balance
                                       pe  =   4.000      Adjusted to redox equilibrium
      Specific Conductance (µS/cm,  15°C)  = 181278
                          Density (g/cm³)  =   1.23660
                               Volume (L)  =   3.09234
                        Viscosity (mPa s)  =   2.66009
                        Activity of water  =   0.751
                 Ionic strength (mol/kgw)  =   7.236e+00
                       Mass of water (kg)  =   2.724e+00
                 Total alkalinity (eq/kg)  =   1.140e-15
                         Temperature (°C)  =  15.00
                  Electrical balance (eq)  =   4.123e-09
 Percent error, 100*(Cat-|An|)/(Cat+|An|)  =   0.00
                               Iterations  =   9
                         Gamma iterations  =   3
                      Osmotic coefficient  =   1.24614
                         Density of water  =   0.99910
                                  Total H  = 3.024221e+02
                                  Total O  = 1.574926e+02

----------------------------Distribution of species----------------------------

                                                    MacInnes  MacInnes
                                MacInnes       Log       Log       Log    mole V
   Species          Molality    Activity  Molality  Activity     Gamma   cm³/mol

   OH-             9.613e-08   3.492e-08    -7.017    -7.457    -0.440      5.55
   H+              1.366e-08   9.759e-08    -7.864    -7.011     0.854      0.00
   H2O             5.551e+01   7.512e-01     1.744    -0.124     0.000     18.03
Cl            5.507e+00
   Cl-             5.507e+00   3.440e+00     0.741     0.537    -0.204     19.99
Na            6.659e+00
   Na+             6.659e+00   9.887e+00     0.823     0.995     0.172      1.33
S(6)          5.765e-01
   SO4-2           5.765e-01   3.509e-03    -0.239    -2.455    -2.216     26.50
   HSO4-           8.247e-08   2.702e-08    -7.084    -7.568    -0.485     41.38

------------------------------Saturation indices-------------------------------

  Phase               SI** log IAP   log K(288 K,   1 atm)

  H2O(g)           -1.89     -0.12    1.77  H2O
  Halite           -0.02      1.53    1.56  NaCl
  Mirabilite        0.00     -1.71   -1.71  Na2SO4:10H2O
  Thenardite       -0.21     -0.46   -0.25  Na2SO4

**For a gas, SI = log10(fugacity). Fugacity = pressure * phi / 1 atm.
  For ideal gases, phi = 1.

Reaction step 12.

Using solution 1.	
Using pure phase assemblage 1.	
Using temperature 1.	
Using reaction 1.	

Reaction 1.	

	  1.000e+00 moles of the following reaction have been added:

	                 Relative
	Reactant            moles

	Na2SO4              -1.00000
	NaCl                 1.50000

	                 Relative
	Element             moles
	Cl                   1.50000
	Na                  -0.50000
	O                   -4.00000
	S                   -1.00000

-------------------------------Phase assemblage--------------------------------

                                                      Moles in assemblage
Phase               SI  log IAP  log K(T, P)   Initial       Final       Delta

Halite            0.00     1.56      1.56    0.000e+00   2.837e-01   2.837e-01
Mirabilite       -0.20    -1.91     -1.71    4.295e-01           0  -4.295e-01

-----------------------------Solution composition------------------------------

	Elements           Molality       Moles

	Cl                5.789e+00   1.622e+01
	Na                6.502e+00   1.822e+01
	S                 3.569e-01   9.999e-01

----------------------------Description of solution----------------------------

                                       pH  =   6.911      Charge balance
                                       pe  =   4.000      Adjusted to redox equilibrium
      Specific Conductance (µS/cm,  15°C)  = 190054
                          Density (g/cm³)  =   1.22523
                               Volume (L)  =   3.17606
                        Viscosity (mPa s)  =   2.50059
                        Activity of water  =   0.750
                 Ionic strength (mol/kgw)  =   6.859e+00
                       Mass of water (kg)  =   2.802e+00
                 Total alkalinity (eq/kg)  =   2.029e-15
                         Temperature (°C)  =  15.00
                  Electrical balance (eq)  =   4.074e-09
 Percent error, 100*(Cat-|An|)/(Cat+|An|)  =   0.00
                               Iterations  =   9
                         Gamma iterations  =   3
                      Osmotic coefficient  =   1.26430
                         Density of water  =   0.99910
                                  Total H  = 3.110124e+02
                                  Total O  = 1.595058e+02

----------------------------Distribution of species----------------------------

                                                    MacInnes  MacInnes
                                MacInnes       Log       Log       Log    mole V
   Species          Molality    Activity  Molality  Activity     Gamma   cm³/mol

   OH-             7.847e-08   2.769e-08    -7.105    -7.558    -0.452      5.08
   H+              1.606e-08   1.228e-07    -7.794    -6.911     0.884      0.00
   H2O             5.551e+01   7.497e-01     1.744    -0.125     0.000     18.03
Cl            5.789e+00
   Cl-             5.789e+00   3.559e+00     0.763     0.551    -0.211     19.93
Na            6.502e+00
   Na+             6.502e+00   1.011e+01     0.813     1.005     0.191      1.24
S(6)          3.569e-01
   SO4-2           3.569e-01   2.148e-03    -0.447    -2.668    -2.220     26.15
   HSO4-           6.241e-08   2.082e-08    -7.205    -7.682    -0.477     41.33

------------------------------Saturation indices-------------------------------

  Phase               SI** log IAP   log K(288 K,   1 atm)

  H2O(g)           -1.89     -0.13    1.77  H2O
  Halite            0.00      1.56    1.56  NaCl
  Mirabilite       -0.20     -1.91   -1.71  Na2SO4:10H2O
  Thenardite       -0.41     -0.66   -0.25  Na2SO4

**For a gas, SI = log10(fugacity). Fugacity = pressure * phi / 1 atm.
  For ideal gases, phi = 1.

Reaction step 13.

Using solution 1.	
Using pure phase assemblage 1.	
Using temperature 1.	
Using reaction 1.	

Reaction 1.	

	  9.998e-01 moles of the following reaction have been added:

	                 Relative
	Reactant            moles

	Na2SO4              -1.00000
	NaCl                 1.50000

	                 Relative
	Element             moles
	Cl                   1.50000
	Na                  -0.50000
	O                   -4.00000
	S                   -1.00000

-------------------------------Phase assemblage--------------------------------

                                                      Moles in assemblage
Phase               SI  log IAP  log K(T, P)   Initial       Final       Delta

Halite            0.00     1.56      1.56    2.837e-01   9.043e-01   6.205e-01
Mirabilite       -4.19    -5.90     -1.71    0.000e+00           0   0.000e+00

-----------------------------Solution composition------------------------------

	Elements           Molality       Moles

	Cl                6.102e+00   1.710e+01
	Na                6.103e+00   1.710e+01
	S                 3.569e-05   1.000e-04

----------------------------Description of solution----------------------------

                                       pH  =   6.545      Charge balance
                                       pe  =   4.000      Adjusted to redox equilibrium
      Specific Conductance (µS/cm,  15°C)  = 204584
                          Density (g/cm³)  =   1.20257
                               Volume (L)  =   3.16056
                        Viscosity (mPa s)  =   2.23175
                        Activity of water  =   0.755
                 Ionic strength (mol/kgw)  =   6.103e+00
                       Mass of water (kg)  =   2.802e+00
                 Total alkalinity (eq/kg)  =   2.014e-15
                         Temperature (°C)  =  15.00
                  Electrical balance (eq)  =  -4.596e-08
 Percent error, 100*(Cat-|An|)/(Cat+|An|)  =  -0.00
                               Iterations  =   6
                         Gamma iterations  =   3
                      Osmotic coefficient  =   1.28048
                         Density of water  =   0.99910
                                  Total H  = 3.110124e+02
                                  Total O  = 1.555066e+02

----------------------------Distribution of species----------------------------

                                                    MacInnes  MacInnes
                                MacInnes       Log       Log       Log    mole V
   Species          Molality    Activity  Molality  Activity     Gamma   cm³/mol

   OH-             3.526e-08   1.201e-08    -7.453    -7.921    -0.468      4.12
   H+              3.525e-08   2.851e-07    -7.453    -6.545     0.908      0.00
   H2O             5.551e+01   7.546e-01     1.744    -0.122     0.000     18.03
Cl            6.102e+00
   Cl-             6.102e+00   3.643e+00     0.786     0.562    -0.224     19.80
Na            6.103e+00
   Na+             6.103e+00   9.872e+00     0.786     0.994     0.209      1.05
S(6)          3.569e-05
   SO4-2           3.569e-05   2.175e-07    -4.447    -6.662    -2.215     25.41
   HSO4-           1.397e-11   4.893e-12   -10.855   -11.310    -0.456     41.24

------------------------------Saturation indices-------------------------------

  Phase               SI** log IAP   log K(288 K,   1 atm)

  H2O(g)           -1.89     -0.12    1.77  H2O
  Halite            0.00      1.56    1.56  NaCl
  Mirabilite       -4.19     -5.90   -1.71  Na2SO4:10H2O
  Thenardite       -4.42     -4.67   -0.25  Na2SO4

**For a gas, SI = log10(fugacity). Fugacity = pressure * phi / 1 atm.
  For ideal gases, phi = 1.

------------------
End of simulation.
------------------

------------------------------------
Reading input data for simulation 2.
------------------------------------

	USE solution 1
	EQUILIBRIUM_PHASES
	Thenardite 0 10
	Halite 0 0
	REACTION 2
	 NaCl 1 Na2SO4 -1
	 1e-4 11*1 0.99989
	REACTION_TEMPERATURE 2
	 200
	USER_GRAPH 1
	-headings x 200.oC(Thenardite) SI("Halite")
	END
-----------------------------------------
Beginning of batch-reaction calculations.
-----------------------------------------

Reaction step 1.

Using solution 1.	
Using pure phase assemblage 1.	
Using temperature 2.	
Using reaction 2.	

Reaction 2.	

	  1.000e-04 moles of the following reaction have been added:

	                 Relative
	Reactant            moles

	Na2SO4              -1.00000
	NaCl                 1.00000

	                 Relative
	Element             moles
	Cl                   1.00000
	Na                  -1.00000
	O                   -4.00000
	S                   -1.00000

-------------------------------Phase assemblage--------------------------------

                                                      Moles in assemblage
Phase               SI  log IAP  log K(T, P)   Initial       Final       Delta

Halite           -4.45    -3.26      1.19    0.000e+00           0   0.000e+00
Thenardite        0.00    -1.81     -1.81    1.000e+01   8.975e+00  -1.025e+00

-----------------------------Solution composition------------------------------

	Elements           Molality       Moles

	Cl                1.100e-03   1.100e-03
	Na                6.051e+00   6.051e+00
	S                 3.025e+00   3.025e+00

----------------------------Description of solution----------------------------

                                       pH  =   6.956      Charge balance
                                       pe  =   4.000      Adjusted to redox equilibrium
      Specific Conductance (µS/cm, 200°C)  = 1040444
                          Density (g/cm³)  =   1.10438
                               Volume (L)  =   1.29459
                        Viscosity (mPa s)  =   0.33660
                        Activity of water  =   0.931
                 Ionic strength (mol/kgw)  =   9.075e+00
                       Mass of water (kg)  =   1.000e+00
                 Total alkalinity (eq/kg)  =   6.574e-16
                         Temperature (°C)  = 200.00
                           Pressure (atm)  = 15.38
                  Electrical balance (eq)  =  -1.795e-12
 Percent error, 100*(Cat-|An|)/(Cat+|An|)  =  -0.00
                               Iterations  =  18
                         Gamma iterations  =   6
                      Osmotic coefficient  =   0.43613
                         Density of water  =   0.86467
                                  Total H  = 1.110124e+02
                                  Total O  = 6.760533e+01

----------------------------Distribution of species----------------------------

                                                    MacInnes  MacInnes
                                MacInnes       Log       Log       Log    mole V
   Species          Molality    Activity  Molality  Activity     Gamma   cm³/mol

   OH-             1.023e-04   4.057e-05    -3.990    -4.392    -0.401      6.43
   H+              5.354e-07   1.107e-07    -6.271    -6.956    -0.685      0.00
   H2O             5.551e+01   9.312e-01     1.744    -0.031     0.000     20.84
Cl            1.100e-03
   Cl-             1.100e-03   4.365e-04    -2.959    -3.360    -0.401     17.91
Na            6.051e+00
   Na+             6.051e+00   1.273e+00     0.782     0.105    -0.677      3.18
S(6)          3.025e+00
   SO4-2           3.025e+00   9.571e-03     0.481    -2.019    -2.500     39.28
   HSO4-           1.017e-04   1.859e-05    -3.993    -4.731    -0.738     49.33

------------------------------Saturation indices-------------------------------

  Phase               SI** log IAP   log K(473 K,  15 atm)

  H2O(g)            1.13     -0.03   -1.16  H2O
  Halite           -4.45     -3.26    1.19  NaCl
  Mirabilite       -0.76     -2.12   -1.36  Na2SO4:10H2O
  Thenardite        0.00     -1.81   -1.81  Na2SO4

**For a gas, SI = log10(fugacity). Fugacity = pressure * phi / 1 atm.
  For ideal gases, phi = 1.

Reaction step 2.

Using solution 1.	
Using pure phase assemblage 1.	
Using temperature 2.	
Using reaction 2.	

Reaction 2.	

	  1.000e+00 moles of the following reaction have been added:

	                 Relative
	Reactant            moles

	Na2SO4              -1.00000
	NaCl                 1.00000

	                 Relative
	Element             moles
	Cl                   1.00000
	Na                  -1.00000
	O                   -4.00000
	S                   -1.00000

-------------------------------Phase assemblage--------------------------------

                                                      Moles in assemblage
Phase               SI  log IAP  log K(T, P)   Initial       Final       Delta

Halite           -1.44    -0.25      1.19    0.000e+00           0   0.000e+00
Thenardite        0.00    -1.81     -1.81    8.975e+00   8.774e+00  -2.008e-01

-----------------------------Solution composition------------------------------

	Elements           Molality       Moles

	Cl                1.001e+00   1.001e+00
	Na                5.452e+00   5.452e+00
	S                 2.226e+00   2.226e+00

----------------------------Description of solution----------------------------

                                       pH  =   6.899      Charge balance
                                       pe  =   4.000      Adjusted to redox equilibrium
      Specific Conductance (µS/cm, 200°C)  = 1079691
                          Density (g/cm³)  =   1.08623
                               Volume (L)  =   1.26551
                        Viscosity (mPa s)  =   0.29618
                        Activity of water  =   0.914
                 Ionic strength (mol/kgw)  =   7.678e+00
                       Mass of water (kg)  =   1.000e+00
                 Total alkalinity (eq/kg)  =   1.309e-15
                         Temperature (°C)  = 200.00
                           Pressure (atm)  = 15.38
                  Electrical balance (eq)  =  -3.682e-12
 Percent error, 100*(Cat-|An|)/(Cat+|An|)  =  -0.00
                               Iterations  =  15
                         Gamma iterations  =   5
                      Osmotic coefficient  =   0.57782
                         Density of water  =   0.86467
                                  Total H  = 1.110124e+02
                                  Total O  = 6.440854e+01

----------------------------Distribution of species----------------------------

                                                    MacInnes  MacInnes
                                MacInnes       Log       Log       Log    mole V
   Species          Molality    Activity  Molality  Activity     Gamma   cm³/mol

   OH-             8.694e-05   3.494e-05    -4.061    -4.457    -0.396      3.07
   H+              4.684e-07   1.263e-07    -6.329    -6.899    -0.569      0.00
   H2O             5.551e+01   9.136e-01     1.744    -0.039     0.000     20.84
Cl            1.001e+00
   Cl-             1.001e+00   3.971e-01     0.000    -0.401    -0.402     16.42
Na            5.452e+00
   Na+             5.452e+00   1.414e+00     0.737     0.150    -0.586      3.21
S(6)          2.226e+00
   SO4-2           2.225e+00   7.775e-03     0.347    -2.109    -2.457     33.73
   HSO4-           8.647e-05   1.720e-05    -4.063    -4.764    -0.701     47.83

------------------------------Saturation indices-------------------------------

  Phase               SI** log IAP   log K(473 K,  15 atm)

  H2O(g)            1.12     -0.04   -1.16  H2O
  Halite           -1.44     -0.25    1.19  NaCl
  Mirabilite       -0.84     -2.20   -1.36  Na2SO4:10H2O
  Thenardite        0.00     -1.81   -1.81  Na2SO4

**For a gas, SI = log10(fugacity). Fugacity = pressure * phi / 1 atm.
  For ideal gases, phi = 1.

Reaction step 3.

Using solution 1.	
Using pure phase assemblage 1.	
Using temperature 2.	
Using reaction 2.	

Reaction 2.	

	  1.000e+00 moles of the following reaction have been added:

	                 Relative
	Reactant            moles

	Na2SO4              -1.00000
	NaCl                 1.00000

	                 Relative
	Element             moles
	Cl                   1.00000
	Na                  -1.00000
	O                   -4.00000
	S                   -1.00000

-------------------------------Phase assemblage--------------------------------

                                                      Moles in assemblage
Phase               SI  log IAP  log K(T, P)   Initial       Final       Delta

Halite           -1.07     0.12      1.19    0.000e+00           0   0.000e+00
Thenardite        0.00    -1.81     -1.81    8.774e+00   8.301e+00  -4.730e-01

-----------------------------Solution composition------------------------------

	Elements           Molality       Moles

	Cl                2.001e+00   2.001e+00
	Na                5.398e+00   5.398e+00
	S                 1.699e+00   1.699e+00

----------------------------Description of solution----------------------------

                                       pH  =   6.810      Charge balance
                                       pe  =   4.000      Adjusted to redox equilibrium
      Specific Conductance (µS/cm, 200°C)  = 1104094
                          Density (g/cm³)  =   1.07921
                               Volume (L)  =   1.25853
                        Viscosity (mPa s)  =   0.28036
                        Activity of water  =   0.893
                 Ionic strength (mol/kgw)  =   7.097e+00
                       Mass of water (kg)  =   1.000e+00
                 Total alkalinity (eq/kg)  =   1.511e-16
                         Temperature (°C)  = 200.00
                           Pressure (atm)  = 15.38
                  Electrical balance (eq)  =  -1.006e-11
 Percent error, 100*(Cat-|An|)/(Cat+|An|)  =  -0.00
                               Iterations  =  13
                         Gamma iterations  =   4
                      Osmotic coefficient  =   0.68980
                         Density of water  =   0.86467
                                  Total H  = 1.110124e+02
                                  Total O  = 6.230043e+01

----------------------------Distribution of species----------------------------

                                                    MacInnes  MacInnes
                                MacInnes       Log       Log       Log    mole V
   Species          Molality    Activity  Molality  Activity     Gamma   cm³/mol

   OH-             7.415e-05   2.787e-05    -4.130    -4.555    -0.425      1.63
   H+              3.972e-07   1.548e-07    -6.401    -6.810    -0.409      0.00
   H2O             5.551e+01   8.931e-01     1.744    -0.049     0.000     20.84
Cl            2.001e+00
   Cl-             2.001e+00   7.920e-01     0.301    -0.101    -0.403     15.76
Na            5.398e+00
   Na+             5.398e+00   1.683e+00     0.732     0.226    -0.506      3.22
S(6)          1.699e+00
   SO4-2           1.698e+00   5.491e-03     0.230    -2.260    -2.490     31.27
   HSO4-           7.375e-05   1.489e-05    -4.132    -4.827    -0.695     47.16

------------------------------Saturation indices-------------------------------

  Phase               SI** log IAP   log K(473 K,  15 atm)

  H2O(g)            1.11     -0.05   -1.16  H2O
  Halite           -1.07      0.12    1.19  NaCl
  Mirabilite       -0.94     -2.30   -1.36  Na2SO4:10H2O
  Thenardite        0.00     -1.81   -1.81  Na2SO4

**For a gas, SI = log10(fugacity). Fugacity = pressure * phi / 1 atm.
  For ideal gases, phi = 1.

Reaction step 4.

Using solution 1.	
Using pure phase assemblage 1.	
Using temperature 2.	
Using reaction 2.	

Reaction 2.	

	  1.000e+00 moles of the following reaction have been added:

	                 Relative
	Reactant            moles

	Na2SO4              -1.00000
	NaCl                 1.00000

	                 Relative
	Element             moles
	Cl                   1.00000
	Na                  -1.00000
	O                   -4.00000
	S                   -1.00000

-------------------------------Phase assemblage--------------------------------

                                                      Moles in assemblage
Phase               SI  log IAP  log K(T, P)   Initial       Final       Delta

Halite           -0.80     0.39      1.19    0.000e+00           0   0.000e+00
Thenardite        0.00    -1.81     -1.81    8.301e+00   7.655e+00  -6.465e-01

-----------------------------Solution composition------------------------------

	Elements           Molality       Moles

	Cl                3.001e+00   3.001e+00
	Na                5.691e+00   5.691e+00
	S                 1.345e+00   1.345e+00

----------------------------Description of solution----------------------------

                                       pH  =   6.708      Charge balance
                                       pe  =   4.000      Adjusted to redox equilibrium
      Specific Conductance (µS/cm, 200°C)  = 1124504
                          Density (g/cm³)  =   1.08138
                               Volume (L)  =   1.26361
                        Viscosity (mPa s)  =   0.27915
                        Activity of water  =   0.869
                 Ionic strength (mol/kgw)  =   7.036e+00
                       Mass of water (kg)  =   1.000e+00
                 Total alkalinity (eq/kg)  =   6.746e-15
                         Temperature (°C)  = 200.00
                           Pressure (atm)  = 15.38
                  Electrical balance (eq)  =  -4.482e-10
 Percent error, 100*(Cat-|An|)/(Cat+|An|)  =  -0.00
                               Iterations  =  10
                         Gamma iterations  =   4
                      Osmotic coefficient  =   0.77637
                         Density of water  =   0.86467
                                  Total H  = 1.110124e+02
                                  Total O  = 6.088636e+01

----------------------------Distribution of species----------------------------

                                                    MacInnes  MacInnes
                                MacInnes       Log       Log       Log    mole V
   Species          Molality    Activity  Molality  Activity     Gamma   cm³/mol

   OH-             6.378e-05   2.146e-05    -4.195    -4.668    -0.473      1.48
   H+              3.380e-07   1.957e-07    -6.471    -6.708    -0.237      0.00
   H2O             5.551e+01   8.690e-01     1.744    -0.061     0.000     20.84
Cl            3.001e+00
   Cl-             3.001e+00   1.187e+00     0.477     0.075    -0.403     15.68
Na            5.691e+00
   Na+             5.691e+00   2.068e+00     0.755     0.316    -0.440      3.22
S(6)          1.345e+00
   SO4-2           1.345e+00   3.635e-03     0.129    -2.440    -2.568     31.01
   HSO4-           6.344e-05   1.245e-05    -4.198    -4.905    -0.707     47.09

------------------------------Saturation indices-------------------------------

  Phase               SI** log IAP   log K(473 K,  15 atm)

  H2O(g)            1.10     -0.06   -1.16  H2O
  Halite           -0.80      0.39    1.19  NaCl
  Mirabilite       -1.06     -2.42   -1.36  Na2SO4:10H2O
  Thenardite        0.00     -1.81   -1.81  Na2SO4

**For a gas, SI = log10(fugacity). Fugacity = pressure * phi / 1 atm.
  For ideal gases, phi = 1.

Reaction step 5.

Using solution 1.	
Using pure phase assemblage 1.	
Using temperature 2.	
Using reaction 2.	

Reaction 2.	

	  1.000e+00 moles of the following reaction have been added:

	                 Relative
	Reactant            moles

	Na2SO4              -1.00000
	NaCl                 1.00000

	                 Relative
	Element             moles
	Cl                   1.00000
	Na                  -1.00000
	O                   -4.00000
	S                   -1.00000

-------------------------------Phase assemblage--------------------------------

                                                      Moles in assemblage
Phase               SI  log IAP  log K(T, P)   Initial       Final       Delta

Halite           -0.59     0.61      1.19    0.000e+00           0   0.000e+00
Thenardite        0.00    -1.81     -1.81    7.655e+00   6.883e+00  -7.714e-01

-----------------------------Solution composition------------------------------

	Elements           Molality       Moles

	Cl                4.001e+00   4.001e+00
	Na                6.234e+00   6.234e+00
	S                 1.116e+00   1.116e+00

----------------------------Description of solution----------------------------

                                       pH  =   6.602      Charge balance
                                       pe  =   4.000      Adjusted to redox equilibrium
      Specific Conductance (µS/cm, 200°C)  = 1143723
                          Density (g/cm³)  =   1.09047
                               Volume (L)  =   1.27689
                        Viscosity (mPa s)  =   0.28775
                        Activity of water  =   0.842
                 Ionic strength (mol/kgw)  =   7.350e+00
                       Mass of water (kg)  =   1.000e+00
                 Total alkalinity (eq/kg)  =   8.014e-15
                         Temperature (°C)  = 200.00
                           Pressure (atm)  = 15.38
                  Electrical balance (eq)  =  -4.495e-10
 Percent error, 100*(Cat-|An|)/(Cat+|An|)  =  -0.00
                               Iterations  =   9
                         Gamma iterations  =   4
                      Osmotic coefficient  =   0.84057
                         Density of water  =   0.86467
                                  Total H  = 1.110124e+02
                                  Total O  = 5.997184e+01

----------------------------Distribution of species----------------------------

                                                    MacInnes  MacInnes
                                MacInnes       Log       Log       Log    mole V
   Species          Molality    Activity  Molality  Activity     Gamma   cm³/mol

   OH-             5.651e-05   1.628e-05    -4.248    -4.788    -0.541      2.26
   H+              2.906e-07   2.499e-07    -6.537    -6.602    -0.066      0.00
   H2O             5.551e+01   8.421e-01     1.744    -0.075     0.000     20.84
Cl            4.001e+00
   Cl-             4.001e+00   1.585e+00     0.602     0.200    -0.402     16.05
Na            6.234e+00
   Na+             6.234e+00   2.558e+00     0.795     0.408    -0.387      3.21
S(6)          1.116e+00
   SO4-2           1.116e+00   2.375e-03     0.048    -2.624    -2.672     32.36
   HSO4-           5.622e-05   1.040e-05    -4.250    -4.983    -0.733     47.46

------------------------------Saturation indices-------------------------------

  Phase               SI** log IAP   log K(473 K,  15 atm)

  H2O(g)            1.08     -0.07   -1.16  H2O
  Halite           -0.59      0.61    1.19  NaCl
  Mirabilite       -1.20     -2.55   -1.36  Na2SO4:10H2O
  Thenardite        0.00     -1.81   -1.81  Na2SO4

**For a gas, SI = log10(fugacity). Fugacity = pressure * phi / 1 atm.
  For ideal gases, phi = 1.

Reaction step 6.

Using solution 1.	
Using pure phase assemblage 1.	
Using temperature 2.	
Using reaction 2.	

Reaction 2.	

	  1.000e+00 moles of the following reaction have been added:

	                 Relative
	Reactant            moles

	Na2SO4              -1.00000
	NaCl                 1.00000

	                 Relative
	Element             moles
	Cl                   1.00000
	Na                  -1.00000
	O                   -4.00000
	S                   -1.00000

-------------------------------Phase assemblage--------------------------------

                                                      Moles in assemblage
Phase               SI  log IAP  log K(T, P)   Initial       Final       Delta

Halite           -0.40     0.79      1.19    0.000e+00           0   0.000e+00
Thenardite        0.00    -1.81     -1.81    6.883e+00   6.023e+00  -8.604e-01

-----------------------------Solution composition------------------------------

	Elements           Molality       Moles

	Cl                5.001e+00   5.001e+00
	Na                6.955e+00   6.955e+00
	S                 9.768e-01   9.768e-01

----------------------------Description of solution----------------------------

                                       pH  =   6.495      Charge balance
                                       pe  =   4.000      Adjusted to redox equilibrium
      Specific Conductance (µS/cm, 200°C)  = 1159817
                          Density (g/cm³)  =   1.10394
                               Volume (L)  =   1.29630
                        Viscosity (mPa s)  =   0.30324
                        Activity of water  =   0.813
                 Ionic strength (mol/kgw)  =   7.931e+00
                       Mass of water (kg)  =   1.000e+00
                 Total alkalinity (eq/kg)  =   1.395e-14
                         Temperature (°C)  = 200.00
                           Pressure (atm)  = 15.38
                  Electrical balance (eq)  =  -2.220e-10
 Percent error, 100*(Cat-|An|)/(Cat+|An|)  =  -0.00
                               Iterations  =  10
                         Gamma iterations  =   4
                      Osmotic coefficient  =   0.88597
                         Density of water  =   0.86467
                                  Total H  = 1.110124e+02
                                  Total O  = 5.941340e+01

----------------------------Distribution of species----------------------------

                                                    MacInnes  MacInnes
                                MacInnes       Log       Log       Log    mole V
   Species          Molality    Activity  Molality  Activity     Gamma   cm³/mol

   OH-             5.254e-05   1.227e-05    -4.279    -4.911    -0.632      3.70
   H+              2.515e-07   3.201e-07    -6.599    -6.495     0.105      0.00
   H2O             5.551e+01   8.135e-01     1.744    -0.090     0.000     20.84
Cl            5.001e+00
   Cl-             5.001e+00   1.985e+00     0.699     0.298    -0.401     16.70
Na            6.955e+00
   Na+             6.955e+00   3.130e+00     0.842     0.496    -0.347      3.20
S(6)          9.768e-01
   SO4-2           9.767e-01   1.585e-03    -0.010    -2.800    -2.790     34.77
   HSO4-           5.229e-05   8.893e-06    -4.282    -5.051    -0.769     48.12

------------------------------Saturation indices-------------------------------

  Phase               SI** log IAP   log K(473 K,  15 atm)

  H2O(g)            1.07     -0.09   -1.16  H2O
  Halite           -0.40      0.79    1.19  NaCl
  Mirabilite       -1.35     -2.71   -1.36  Na2SO4:10H2O
  Thenardite        0.00     -1.81   -1.81  Na2SO4

**For a gas, SI = log10(fugacity). Fugacity = pressure * phi / 1 atm.
  For ideal gases, phi = 1.

Reaction step 7.

Using solution 1.	
Using pure phase assemblage 1.	
Using temperature 2.	
Using reaction 2.	

Reaction 2.	

	  1.000e+00 moles of the following reaction have been added:

	                 Relative
	Reactant            moles

	Na2SO4              -1.00000
	NaCl                 1.00000

	                 Relative
	Element             moles
	Cl                   1.00000
	Na                  -1.00000
	O                   -4.00000
	S                   -1.00000

-------------------------------Phase assemblage--------------------------------

                                                      Moles in assemblage
Phase               SI  log IAP  log K(T, P)   Initial       Final       Delta

Halite           -0.24     0.95      1.19    0.000e+00           0   0.000e+00
Thenardite        0.00    -1.81     -1.81    6.000e+00   5.093e+00  -9.068e-01

-----------------------------Solution composition------------------------------

	Elements           Molality       Moles

	Cl                6.001e+00   6.001e+00
	Na                7.815e+00   7.815e+00
	S                 9.068e-01   9.068e-01

----------------------------Description of solution----------------------------

                                       pH  =   6.386      Charge balance
                                       pe  =   4.000      Adjusted to redox equilibrium
      Specific Conductance (µS/cm, 200°C)  = 1169907
                          Density (g/cm³)  =   1.11992
                               Volume (L)  =   1.32110
                        Viscosity (mPa s)  =   0.32430
                        Activity of water  =   0.785
                 Ionic strength (mol/kgw)  =   8.721e+00
                       Mass of water (kg)  =   1.000e+00
                 Total alkalinity (eq/kg)  =   8.264e-14
                         Temperature (°C)  = 200.00
                           Pressure (atm)  = 15.38
                  Electrical balance (eq)  =   3.410e-09
 Percent error, 100*(Cat-|An|)/(Cat+|An|)  =   0.00
                               Iterations  =  15
                         Gamma iterations  =   4
                      Osmotic coefficient  =   0.91437
                         Density of water  =   0.86467
                                  Total H  = 1.110124e+02
                                  Total O  = 5.913338e+01

----------------------------Distribution of species----------------------------

                                                    MacInnes  MacInnes
                                MacInnes       Log       Log       Log    mole V
   Species          Molality    Activity  Molality  Activity     Gamma   cm³/mol

   OH-             5.204e-05   9.205e-06    -4.284    -5.036    -0.752      5.59
   H+              2.177e-07   4.112e-07    -6.662    -6.386     0.276      0.00
   H2O             5.551e+01   7.846e-01     1.744    -0.105     0.000     20.84
Cl            6.001e+00
   Cl-             6.001e+00   2.383e+00     0.778     0.377    -0.401     17.55
Na            7.815e+00
   Na+             7.815e+00   3.756e+00     0.893     0.575    -0.318      3.19
S(6)          9.068e-01
   SO4-2           9.067e-01   1.100e-03    -0.043    -2.959    -2.916     37.92
   HSO4-           5.183e-05   7.935e-06    -4.285    -5.100    -0.815     48.97

------------------------------Saturation indices-------------------------------

  Phase               SI** log IAP   log K(473 K,  15 atm)

  H2O(g)            1.05     -0.11   -1.16  H2O
  Halite           -0.24      0.95    1.19  NaCl
  Mirabilite       -1.51     -2.86   -1.36  Na2SO4:10H2O
  Thenardite        0.00     -1.81   -1.81  Na2SO4

**For a gas, SI = log10(fugacity). Fugacity = pressure * phi / 1 atm.
  For ideal gases, phi = 1.

Reaction step 8.

Using solution 1.	
Using pure phase assemblage 1.	
Using temperature 2.	
Using reaction 2.	

Reaction 2.	

	  1.000e+00 moles of the following reaction have been added:

	                 Relative
	Reactant            moles

	Na2SO4              -1.00000
	NaCl                 1.00000

	                 Relative
	Element             moles
	Cl                   1.00000
	Na                  -1.00000
	O                   -4.00000
	S                   -1.00000

-------------------------------Phase assemblage--------------------------------

                                                      Moles in assemblage
Phase               SI  log IAP  log K(T, P)   Initial       Final       Delta

Halite           -0.11     1.09      1.19    0.000e+00           0   0.000e+00
Thenardite        0.00    -1.81     -1.81    5.000e+00   4.093e+00  -9.066e-01

-----------------------------Solution composition------------------------------

	Elements           Molality       Moles

[...]

   OH-             5.605e-05   6.847e-06    -4.251    -5.165    -0.913      7.93
   H+              1.875e-07   5.329e-07    -6.727    -6.273     0.454      0.00
   H2O             5.551e+01   7.570e-01     1.744    -0.121     0.000     20.84
Cl            7.001e+00
   Cl-             7.001e+00   2.770e+00     0.845     0.442    -0.403     18.55
Na            8.814e+00
   Na+             8.814e+00   4.393e+00     0.945     0.643    -0.302      3.16
S(6)          9.066e-01
   SO4-2           9.066e-01   8.027e-04    -0.043    -3.095    -3.053     41.71
   HSO4-           5.586e-05   7.512e-06    -4.253    -5.124    -0.871     49.98

------------------------------Saturation indices-------------------------------

  Phase               SI** log IAP   log K(473 K,  15 atm)

  H2O(g)            1.04     -0.12   -1.16  H2O
  Halite           -0.11      1.09    1.19  NaCl
  Mirabilite       -1.66     -3.02   -1.36  Na2SO4:10H2O
  Thenardite        0.00     -1.81   -1.81  Na2SO4

**For a gas, SI = log10(fugacity). Fugacity = pressure * phi / 1 atm.
  For ideal gases, phi = 1.

Reaction step 9.

Using solution 1.	
Using pure phase assemblage 1.	
Using temperature 2.	
Using reaction 2.	

Reaction 2.	

	  1.000e+00 moles of the following reaction have been added:

	                 Relative
	Reactant            moles

	Na2SO4              -1.00000
	NaCl                 1.00000

	                 Relative
	Element             moles
	Cl                   1.00000
	Na                  -1.00000
	O                   -4.00000
	S                   -1.00000

-------------------------------Phase assemblage--------------------------------

                                                      Moles in assemblage
Phase               SI  log IAP  log K(T, P)   Initial       Final       Delta

Halite           -0.00     1.19      1.19    0.000e+00           0   0.000e+00
Thenardite        0.00    -1.81     -1.81    4.000e+00   2.972e+00  -1.028e+00

-----------------------------Solution composition------------------------------

	Elements           Molality       Moles

	Cl                8.001e+00   8.001e+00
	Na                1.006e+01   1.006e+01
	S                 1.028e+00   1.028e+00

----------------------------Description of solution----------------------------

                                       pH  =   6.149      Charge balance
                                       pe  =   4.000      Adjusted to redox equilibrium
      Specific Conductance (µS/cm, 200°C)  = 1158160
                          Density (g/cm³)  =   1.15722
                               Volume (L)  =   1.39436
                        Viscosity (mPa s)  =   0.38815
                        Activity of water  =   0.733
                 Ionic strength (mol/kgw)  =   1.108e+01
                       Mass of water (kg)  =   1.000e+00
                 Total alkalinity (eq/kg)  =   1.594e-13
                         Temperature (°C)  = 200.00
                           Pressure (atm)  = 15.38
                  Electrical balance (eq)  =   6.857e-09
 Percent error, 100*(Cat-|An|)/(Cat+|An|)  =   0.00
                               Iterations  =  19
                         Gamma iterations  =   5
                      Osmotic coefficient  =   0.90462
                         Density of water  =   0.86467
                                  Total H  = 1.110124e+02
                                  Total O  = 5.961677e+01

----------------------------Distribution of species----------------------------

                                                    MacInnes  MacInnes
                                MacInnes       Log       Log       Log    mole V
   Species          Molality    Activity  Molality  Activity     Gamma   cm³/mol

   OH-             6.945e-05   4.976e-06    -4.158    -5.303    -1.145     11.02
   H+              1.588e-07   7.089e-07    -6.799    -6.149     0.650      0.00
   H2O             5.551e+01   7.327e-01     1.744    -0.135     0.000     20.84
Cl            8.001e+00
   Cl-             8.001e+00   3.121e+00     0.903     0.494    -0.409     19.81
Na            1.006e+01
   Na+             1.006e+01   4.965e+00     1.002     0.696    -0.307      3.13
S(6)          1.028e+00
   SO4-2           1.028e+00   6.274e-04     0.012    -3.202    -3.214     46.58
   HSO4-           6.929e-05   7.821e-06    -4.159    -5.107    -0.947     51.26

------------------------------Saturation indices-------------------------------

  Phase               SI** log IAP   log K(473 K,  15 atm)

  H2O(g)            1.02     -0.14   -1.16  H2O
  Halite           -0.00      1.19    1.19  NaCl
  Mirabilite       -1.80     -3.16   -1.36  Na2SO4:10H2O
  Thenardite        0.00     -1.81   -1.81  Na2SO4

**For a gas, SI = log10(fugacity). Fugacity = pressure * phi / 1 atm.
  For ideal gases, phi = 1.

Reaction step 10.

Using solution 1.	
Using pure phase assemblage 1.	
Using temperature 2.	
Using reaction 2.	

Reaction 2.	

	  1.000e+00 moles of the following reaction have been added:

	                 Relative
	Reactant            moles

	Na2SO4              -1.00000
	NaCl                 1.00000

	                 Relative
	Element             moles
	Cl                   1.00000
	Na                  -1.00000
	O                   -4.00000
	S                   -1.00000

-------------------------------Phase assemblage--------------------------------

                                                      Moles in assemblage
Phase               SI  log IAP  log K(T, P)   Initial       Final       Delta

Halite            0.00     1.19      1.19    0.000e+00   9.615e-01   9.615e-01
Thenardite        0.00    -1.81     -1.81    2.972e+00   1.962e+00  -1.010e+00

-----------------------------Solution composition------------------------------

	Elements           Molality       Moles

	Cl                8.040e+00   8.040e+00
	Na                1.012e+01   1.012e+01
	S                 1.038e+00   1.038e+00

----------------------------Description of solution----------------------------

                                       pH  =   6.144      Charge balance
                                       pe  =   4.000      Adjusted to redox equilibrium
      Specific Conductance (µS/cm, 200°C)  = 1157136
                          Density (g/cm³)  =   1.15809
                               Volume (L)  =   1.39650
                        Viscosity (mPa s)  =   0.39002
                        Activity of water  =   0.732
                 Ionic strength (mol/kgw)  =   1.115e+01
                       Mass of water (kg)  =   1.000e+00
                 Total alkalinity (eq/kg)  =   1.587e-13
                         Temperature (°C)  = 200.00
                           Pressure (atm)  = 15.38
                  Electrical balance (eq)  =   6.855e-09
 Percent error, 100*(Cat-|An|)/(Cat+|An|)  =   0.00
                               Iterations  =  10
                         Gamma iterations  =   3
                      Osmotic coefficient  =   0.90266
                         Density of water  =   0.86467
                                  Total H  = 1.110124e+02
                                  Total O  = 5.965740e+01

----------------------------Distribution of species----------------------------

                                                    MacInnes  MacInnes
                                MacInnes       Log       Log       Log    mole V
   Species          Molality    Activity  Molality  Activity     Gamma   cm³/mol

   OH-             7.041e-05   4.910e-06    -4.152    -5.309    -1.157     11.18
   H+              1.576e-07   7.177e-07    -6.802    -6.144     0.658      0.00
   H2O             5.551e+01   7.319e-01     1.744    -0.136     0.000     20.84
Cl            8.040e+00
   Cl-             8.040e+00   3.133e+00     0.905     0.496    -0.409     19.87
Na            1.012e+01
   Na+             1.012e+01   4.983e+00     1.005     0.697    -0.308      3.13
S(6)          1.038e+00
   SO4-2           1.038e+00   6.228e-04     0.016    -3.206    -3.222     46.82
   HSO4-           7.025e-05   7.861e-06    -4.153    -5.105    -0.951     51.32

------------------------------Saturation indices-------------------------------

  Phase               SI** log IAP   log K(473 K,  15 atm)

  H2O(g)            1.02     -0.14   -1.16  H2O
  Halite            0.00      1.19    1.19  NaCl
  Mirabilite       -1.81     -3.17   -1.36  Na2SO4:10H2O
  Thenardite        0.00     -1.81   -1.81  Na2SO4

**For a gas, SI = log10(fugacity). Fugacity = pressure * phi / 1 atm.
  For ideal gases, phi = 1.

Reaction step 11.

Using solution 1.	
Using pure phase assemblage 1.	
Using temperature 2.	
Using reaction 2.	

Reaction 2.	

	  1.000e+00 moles of the following reaction have been added:

	                 Relative
	Reactant            moles

	Na2SO4              -1.00000
	NaCl                 1.00000

	                 Relative
	Element             moles
	Cl                   1.00000
	Na                  -1.00000
	O                   -4.00000
	S                   -1.00000

-------------------------------Phase assemblage--------------------------------

                                                      Moles in assemblage
Phase               SI  log IAP  log K(T, P)   Initial       Final       Delta

Halite            0.00     1.19      1.19    9.615e-01   1.961e+00   1.000e+00
Thenardite       -0.00    -1.81     -1.81    1.962e+00   9.621e-01  -1.000e+00

-----------------------------Solution composition------------------------------

	Elements           Molality       Moles

	Cl                8.040e+00   8.040e+00
	Na                1.012e+01   1.012e+01
	S                 1.038e+00   1.038e+00

----------------------------Description of solution----------------------------

                                       pH  =   6.144      Charge balance
                                       pe  =   4.000      Adjusted to redox equilibrium
      Specific Conductance (µS/cm, 200°C)  = 1157136
                          Density (g/cm³)  =   1.15809
                               Volume (L)  =   1.39650
                        Viscosity (mPa s)  =   0.39002
                        Activity of water  =   0.732
                 Ionic strength (mol/kgw)  =   1.115e+01
                       Mass of water (kg)  =   1.000e+00
                 Total alkalinity (eq/kg)  =   1.589e-13
                         Temperature (°C)  = 200.00
                           Pressure (atm)  = 15.38
                  Electrical balance (eq)  =   6.854e-09
 Percent error, 100*(Cat-|An|)/(Cat+|An|)  =   0.00
                               Iterations  =   5
                         Gamma iterations  =   1
                      Osmotic coefficient  =   0.90266
                         Density of water  =   0.86467
                                  Total H  = 1.110124e+02
                                  Total O  = 5.965740e+01

----------------------------Distribution of species----------------------------

                                                    MacInnes  MacInnes
                                MacInnes       Log       Log       Log    mole V
   Species          Molality    Activity  Molality  Activity     Gamma   cm³/mol

   OH-             7.041e-05   4.910e-06    -4.152    -5.309    -1.157     11.18
   H+              1.576e-07   7.177e-07    -6.802    -6.144     0.658      0.00
   H2O             5.551e+01   7.319e-01     1.744    -0.136     0.000     20.84
Cl            8.040e+00
   Cl-             8.040e+00   3.133e+00     0.905     0.496    -0.409     19.87
Na            1.012e+01
   Na+             1.012e+01   4.983e+00     1.005     0.697    -0.308      3.13
S(6)          1.038e+00
   SO4-2           1.038e+00   6.228e-04     0.016    -3.206    -3.222     46.82
   HSO4-           7.025e-05   7.861e-06    -4.153    -5.105    -0.951     51.32

------------------------------Saturation indices-------------------------------

  Phase               SI** log IAP   log K(473 K,  15 atm)

  H2O(g)            1.02     -0.14   -1.16  H2O
  Halite            0.00      1.19    1.19  NaCl
  Mirabilite       -1.81     -3.17   -1.36  Na2SO4:10H2O
  Thenardite       -0.00     -1.81   -1.81  Na2SO4

**For a gas, SI = log10(fugacity). Fugacity = pressure * phi / 1 atm.
  For ideal gases, phi = 1.

Reaction step 12.

Using solution 1.	
Using pure phase assemblage 1.	
Using temperature 2.	
Using reaction 2.	

Reaction 2.	

	  1.000e+00 moles of the following reaction have been added:

	                 Relative
	Reactant            moles

	Na2SO4              -1.00000
	NaCl                 1.00000

	                 Relative
	Element             moles
	Cl                   1.00000
	Na                  -1.00000
	O                   -4.00000
	S                   -1.00000

-------------------------------Phase assemblage--------------------------------

                                                      Moles in assemblage
Phase               SI  log IAP  log K(T, P)   Initial       Final       Delta

Halite            0.00     1.19      1.19    1.961e+00   2.979e+00   1.017e+00
Thenardite       -0.01    -1.82     -1.81    9.621e-01           0  -9.621e-01

-----------------------------Solution composition------------------------------

	Elements           Molality       Moles

	Cl                8.022e+00   8.022e+00
	Na                1.002e+01   1.002e+01
	S                 9.999e-01   9.999e-01

----------------------------Description of solution----------------------------

                                       pH  =   6.146      Charge balance
                                       pe  =   4.000      Adjusted to redox equilibrium
      Specific Conductance (µS/cm, 200°C)  = 1158750
                          Density (g/cm³)  =   1.15662
                               Volume (L)  =   1.39274
                        Viscosity (mPa s)  =   0.38670
                        Activity of water  =   0.732
                 Ionic strength (mol/kgw)  =   1.102e+01
                       Mass of water (kg)  =   1.000e+00
                 Total alkalinity (eq/kg)  =   1.588e-13
                         Temperature (°C)  = 200.00
                           Pressure (atm)  = 15.38
                  Electrical balance (eq)  =   6.851e-09
 Percent error, 100*(Cat-|An|)/(Cat+|An|)  =   0.00
                               Iterations  =  10
                         Gamma iterations  =   3
                      Osmotic coefficient  =   0.90897
                         Density of water  =   0.86467
                                  Total H  = 1.110124e+02
                                  Total O  = 5.950582e+01

----------------------------Distribution of species----------------------------

                                                    MacInnes  MacInnes
                                MacInnes       Log       Log       Log    mole V
   Species          Molality    Activity  Molality  Activity     Gamma   cm³/mol

   OH-             6.805e-05   4.939e-06    -4.167    -5.306    -1.139     10.88
   H+              1.598e-07   7.137e-07    -6.797    -6.146     0.650      0.00
   H2O             5.551e+01   7.321e-01     1.744    -0.135     0.000     20.84
Cl            8.022e+00
   Cl-             8.022e+00   3.132e+00     0.904     0.496    -0.408     19.76
Na            1.002e+01
   Na+             1.002e+01   4.984e+00     1.001     0.698    -0.303      3.13
S(6)          9.999e-01
   SO4-2           9.998e-01   6.140e-04    -0.000    -3.212    -3.212     46.37
   HSO4-           6.789e-05   7.707e-06    -4.168    -5.113    -0.945     51.20

------------------------------Saturation indices-------------------------------

  Phase               SI** log IAP   log K(473 K,  15 atm)

  H2O(g)            1.02     -0.14   -1.16  H2O
  Halite            0.00      1.19    1.19  NaCl
  Mirabilite       -1.81     -3.17   -1.36  Na2SO4:10H2O
  Thenardite       -0.01     -1.82   -1.81  Na2SO4

**For a gas, SI = log10(fugacity). Fugacity = pressure * phi / 1 atm.
  For ideal gases, phi = 1.

Reaction step 13.

Using solution 1.	
Using pure phase assemblage 1.	
Using temperature 2.	
Using reaction 2.	

Reaction 2.	

	  9.999e-01 moles of the following reaction have been added:

	                 Relative
	Reactant            moles

	Na2SO4              -1.00000
	NaCl                 1.00000

	                 Relative
	Element             moles
	Cl                   1.00000
	Na                  -1.00000
	O                   -4.00000
	S                   -1.00000

-------------------------------Phase assemblage--------------------------------

                                                      Moles in assemblage
Phase               SI  log IAP  log K(T, P)   Initial       Final       Delta

Halite            0.00     1.19      1.19    2.979e+00   4.128e+00   1.149e+00
Thenardite       -4.83    -6.64     -1.81    0.000e+00           0   0.000e+00

-----------------------------Solution composition------------------------------

	Elements           Molality       Moles

	Cl                7.873e+00   7.873e+00
	Na                7.873e+00   7.873e+00
	S                 1.000e-05   1.000e-05

----------------------------Description of solution----------------------------

                                       pH  =   5.039      Charge balance
                                       pe  =   4.000      Adjusted to redox equilibrium
      Specific Conductance (µS/cm, 200°C)  = 1116569
                          Density (g/cm³)  =   1.11227
                               Volume (L)  =   1.31276
                        Viscosity (mPa s)  =   0.31306
                        Activity of water  =   0.742
                 Ionic strength (mol/kgw)  =   7.873e+00
                       Mass of water (kg)  =   1.000e+00
                 Total alkalinity (eq/kg)  =   1.971e-13
                         Temperature (°C)  = 200.00
                           Pressure (atm)  = 15.38
                  Electrical balance (eq)  =   1.194e-08
 Percent error, 100*(Cat-|An|)/(Cat+|An|)  =   0.00
                               Iterations  =  11
                         Gamma iterations  =   4
                      Osmotic coefficient  =   1.05082
                         Density of water  =   0.86467
                                  Total H  = 1.110124e+02
                                  Total O  = 5.550626e+01

----------------------------Distribution of species----------------------------

                                                    MacInnes  MacInnes
                                MacInnes       Log       Log       Log    mole V
   Species          Molality    Activity  Molality  Activity     Gamma   cm³/mol

   OH-             2.598e-06   3.921e-07    -5.585    -6.407    -0.821      3.55
   H+              2.589e-06   9.139e-06    -5.587    -5.039     0.548      0.00
   H2O             5.551e+01   7.422e-01     1.744    -0.129     0.000     20.84
Cl            7.873e+00
   Cl-             7.873e+00   3.125e+00     0.896     0.495    -0.401     16.64
Na            7.873e+00
   Na+             7.873e+00   5.001e+00     0.896     0.699    -0.197      3.21
S(6)          1.000e-05
   SO4-2           9.992e-06   9.156e-09    -5.000    -8.038    -3.038     34.53
   HSO4-           9.539e-09   1.467e-09    -8.021    -8.834    -0.813     48.05

------------------------------Saturation indices-------------------------------

  Phase               SI** log IAP   log K(473 K,  15 atm)

  H2O(g)            1.03     -0.13   -1.16  H2O
  Halite            0.00      1.19    1.19  NaCl
  Mirabilite       -6.58     -7.93   -1.36  Na2SO4:10H2O
  Thenardite       -4.83     -6.64   -1.81  Na2SO4

**For a gas, SI = log10(fugacity). Fugacity = pressure * phi / 1 atm.
  For ideal gases, phi = 1.

------------------
End of simulation.
------------------

------------------------------------
Reading input data for simulation 3.
------------------------------------

