WARNING: Database file from DATABASE keyword is used; command line argument ignored.
   Input file: NaKCl
  Output file: NaKCl.out
Database file: ../database/pitzer.dat

------------------
Reading data base.
------------------

	SOLUTION_MASTER_SPECIES
	SOLUTION_SPECIES
	PHASES
	PITZER
	GAS_BINARY_PARAMETERS
	EXCHANGE_MASTER_SPECIES
	EXCHANGE_SPECIES
	SURFACE_MASTER_SPECIES
	SURFACE_SPECIES
	MEAN_GAMMAS
	END
------------------------------------
Reading input data for simulation 1.
------------------------------------

	DATABASE ../database/pitzer.dat
	SELECTED_OUTPUT 101
	    file                 NaKCl_101.sel
	USER_PUNCH 101
	    headings Mu SC
	    start
	10 PUNCH STR_F$(MU, 20, 12)
	20 PUNCH STR_F$(SC, 20, 10)
	    end
	SOLUTION 1
	 pH 7 charge
	 K 11e3
	 Cl 11e3
	 temp 0
	EQUILIBRIUM_PHASES 1
	 Sylvite 0 10
	 Halite 0 0
	REACTION 1
	Na 1 K -1
	 1e-4 40*0.5 0.99989
	INCREMENTAL_REACTIONS true
	USER_GRAPH 1
	-headings x 0.oC
	-chart_title "Halite/Sylvite solubility curves"
	-axis_titles "mol KCl / kgw" "mol NaCl / kgw"
	-plot_csv_file NaKCl.csv
	10 graph_x tot("K")
	20 graph_y tot("Na")
	-end
	END
-------------------------------------------
Beginning of initial solution calculations.
-------------------------------------------

Initial solution 1.	

-----------------------------Solution composition------------------------------

	Elements           Molality       Moles

	Cl                1.100e+01   1.100e+01
	K                 1.100e+01   1.100e+01

----------------------------Description of solution----------------------------

                                       pH  =   7.312      Charge balance
                                       pe  =   4.000    
      Specific Conductance (µS/cm,   0°C)  = 276188
                          Density (g/cm³)  =   1.30718
                               Volume (L)  =   1.39236
                        Viscosity (mPa s)  =   2.74097
                        Activity of water  =   0.616
                 Ionic strength (mol/kgw)  =   1.100e+01
                       Mass of water (kg)  =   1.000e+00
                 Total alkalinity (eq/kg)  =  -9.125e-16
                         Temperature (°C)  =   0.00
                  Electrical balance (eq)  =  -4.147e-13
 Percent error, 100*(Cat-|An|)/(Cat+|An|)  =  -0.00
                               Iterations  =   7
                         Gamma iterations  =   5
                      Osmotic coefficient  =   1.22427
                         Density of water  =   0.99984
                                  Total H  = 1.110124e+02
                                  Total O  = 5.550622e+01

----------------------------Distribution of species----------------------------

                                                    MacInnes  MacInnes
                                MacInnes       Log       Log       Log    mole V
   Species          Molality    Activity  Molality  Activity     Gamma   cm³/mol

   H+              8.185e-09   4.872e-08    -8.087    -7.312     0.775      0.00
   OH-             8.185e-09   1.456e-08    -8.087    -7.837     0.250      8.29
   H2O             5.551e+01   6.156e-01     1.744    -0.211     0.000     18.02
Cl            1.100e+01
   Cl-             1.100e+01   8.142e+00     1.041     0.911    -0.131     20.17
K             1.100e+01
   K+              1.100e+01   8.142e+00     1.041     0.911    -0.131     15.48

------------------------------Saturation indices-------------------------------

  Phase               SI** log IAP   log K(273 K,   1 atm)

  H2O(g)           -2.42     -0.21    2.21  H2O
  Sylvite           1.26      1.82    0.56  KCl

**For a gas, SI = log10(fugacity). Fugacity = pressure * phi / 1 atm.
  For ideal gases, phi = 1.

-----------------------------------------
Beginning of batch-reaction calculations.
-----------------------------------------

Reaction step 1.

Using solution 1.	
Using pure phase assemblage 1.	
Using reaction 1.	

Reaction 1.	

	  1.000e-04 moles of the following reaction have been added:

	                 Relative
	Reactant            moles

	K                   -1.00000
	Na                   1.00000

	                 Relative
	Element             moles
	K                   -1.00000
	Na                   1.00000

-------------------------------Phase assemblage--------------------------------

                                                      Moles in assemblage
Phase               SI  log IAP  log K(T, P)   Initial       Final       Delta

Halite           -5.44    -3.93      1.50    0.000e+00           0   0.000e+00
Sylvite           0.00     0.56      0.56    1.000e+01   1.741e+01   7.408e+00

-----------------------------Solution composition------------------------------

	Elements           Molality       Moles

	Cl                3.592e+00   3.592e+00
	K                 3.592e+00   3.592e+00
	Na                1.000e-04   1.000e-04

----------------------------Description of solution----------------------------

                                       pH  =   7.356      Charge balance
                                       pe  =   4.000      Adjusted to redox equilibrium
      Specific Conductance (µS/cm,   0°C)  = 187687
                          Density (g/cm³)  =   1.14882
                               Volume (L)  =   1.10358
                        Viscosity (mPa s)  =   1.60818
                        Activity of water  =   0.888
                 Ionic strength (mol/kgw)  =   3.592e+00
                       Mass of water (kg)  =   1.000e+00
                 Total alkalinity (eq/kg)  =  -9.097e-16
                         Temperature (°C)  =   0.00
                  Electrical balance (eq)  =  -4.347e-13
 Percent error, 100*(Cat-|An|)/(Cat+|An|)  =  -0.00
                               Iterations  =  21
                         Gamma iterations  =  10
                      Osmotic coefficient  =   0.91721
                         Density of water  =   0.99984
                                  Total H  = 1.110124e+02
                                  Total O  = 5.550622e+01

----------------------------Distribution of species----------------------------

                                                    MacInnes  MacInnes
                                MacInnes       Log       Log       Log    mole V
   Species          Molality    Activity  Molality  Activity     Gamma   cm³/mol

   H+              2.790e-08   4.406e-08    -7.554    -7.356     0.198      0.00
   OH-             2.790e-08   2.323e-08    -7.554    -7.634    -0.080     -0.85
   H2O             5.551e+01   8.881e-01     1.744    -0.052     0.000     18.02
Cl            3.592e+00
   Cl-             3.592e+00   1.899e+00     0.555     0.279    -0.277     18.25
K             3.592e+00
   K+              3.592e+00   1.899e+00     0.555     0.279    -0.277     10.54
Na            1.000e-04
   Na+             1.000e-04   6.126e-05    -4.000    -4.213    -0.213     -0.50

------------------------------Saturation indices-------------------------------

  Phase               SI** log IAP   log K(273 K,   1 atm)

  H2O(g)           -2.26     -0.05    2.21  H2O
  Halite           -5.44     -3.93    1.50  NaCl
  Sylvite           0.00      0.56    0.56  KCl

**For a gas, SI = log10(fugacity). Fugacity = pressure * phi / 1 atm.
  For ideal gases, phi = 1.

Reaction step 2.

Using solution 1.	
Using pure phase assemblage 1.	
Using reaction 1.	

Reaction 1.	

	  5.000e-01 moles of the following reaction have been added:

	                 Relative
	Reactant            moles

	K                   -1.00000
	Na                   1.00000

	                 Relative
	Element             moles
	K                   -1.00000
	Na                   1.00000

-------------------------------Phase assemblage--------------------------------

                                                      Moles in assemblage
Phase               SI  log IAP  log K(T, P)   Initial       Final       Delta

Halite           -1.69    -0.18      1.50    0.000e+00           0   0.000e+00
Sylvite           0.00     0.56      0.56    1.741e+01   1.718e+01  -2.248e-01

-----------------------------Solution composition------------------------------

	Elements           Molality       Moles

	Cl                3.817e+00   3.817e+00
	K                 3.317e+00   3.317e+00
	Na                5.001e-01   5.001e-01

----------------------------Description of solution----------------------------

                                       pH  =   7.314      Charge balance
                                       pe  =   4.000      Adjusted to redox equilibrium
      Specific Conductance (µS/cm,   0°C)  = 188222
                          Density (g/cm³)  =   1.15485
                               Volume (L)  =   1.10536
                        Viscosity (mPa s)  =   1.69487
                        Activity of water  =   0.880
                 Ionic strength (mol/kgw)  =   3.817e+00
                       Mass of water (kg)  =   1.000e+00
                 Total alkalinity (eq/kg)  =  -8.842e-16
                         Temperature (°C)  =   0.00
                  Electrical balance (eq)  =  -8.304e-10
 Percent error, 100*(Cat-|An|)/(Cat+|An|)  =  -0.00
                               Iterations  =   7
                         Gamma iterations  =   3
                      Osmotic coefficient  =   0.93260
                         Density of water  =   0.99984
                                  Total H  = 1.110124e+02
                                  Total O  = 5.550622e+01

----------------------------Distribution of species----------------------------

                                                    MacInnes  MacInnes
                                MacInnes       Log       Log       Log    mole V
   Species          Molality    Activity  Molality  Activity     Gamma   cm³/mol

   H+              2.699e-08   4.851e-08    -7.569    -7.314     0.255      0.00
   OH-             2.699e-08   2.089e-08    -7.569    -7.680    -0.111     -0.57
   H2O             5.551e+01   8.796e-01     1.744    -0.056     0.000     18.02
Cl            3.817e+00
   Cl-             3.817e+00   2.020e+00     0.582     0.305    -0.276     18.32
K             3.317e+00
   K+              3.317e+00   1.786e+00     0.521     0.252    -0.269     10.69
Na            5.001e-01
   Na+             5.001e-01   3.242e-01    -0.301    -0.489    -0.188     -0.40

------------------------------Saturation indices-------------------------------

  Phase               SI** log IAP   log K(273 K,   1 atm)

  H2O(g)           -2.27     -0.06    2.21  H2O
  Halite           -1.69     -0.18    1.50  NaCl
  Sylvite           0.00      0.56    0.56  KCl

**For a gas, SI = log10(fugacity). Fugacity = pressure * phi / 1 atm.
  For ideal gases, phi = 1.

Reaction step 3.

Using solution 1.	
Using pure phase assemblage 1.	
Using reaction 1.	

Reaction 1.	

	  5.000e-01 moles of the following reaction have been added:

	                 Relative
	Reactant            moles

	K                   -1.00000
	Na                   1.00000

	                 Relative
	Element             moles
	K                   -1.00000
	Na                   1.00000

-------------------------------Phase assemblage--------------------------------

                                                      Moles in assemblage
Phase               SI  log IAP  log K(T, P)   Initial       Final       Delta

Halite           -1.33     0.17      1.50    0.000e+00           0   0.000e+00
Sylvite           0.00     0.56      0.56    1.718e+01   1.695e+01  -2.366e-01

-----------------------------Solution composition------------------------------

	Elements           Molality       Moles

	Cl                4.054e+00   4.054e+00
	K                 3.054e+00   3.054e+00
	Na                1.000e+00   1.000e+00

----------------------------Description of solution----------------------------

                                       pH  =   7.272      Charge balance
                                       pe  =   4.000      Adjusted to redox equilibrium
      Specific Conductance (µS/cm,   0°C)  = 188112
                          Density (g/cm³)  =   1.16121
                               Volume (L)  =   1.10755
                        Viscosity (mPa s)  =   1.79360
                        Activity of water  =   0.870
                 Ionic strength (mol/kgw)  =   4.054e+00
                       Mass of water (kg)  =   1.000e+00
                 Total alkalinity (eq/kg)  =  -1.947e-15
                         Temperature (°C)  =   0.00
                  Electrical balance (eq)  =  -3.368e-09
 Percent error, 100*(Cat-|An|)/(Cat+|An|)  =  -0.00
                               Iterations  =   8
                         Gamma iterations  =   3
                      Osmotic coefficient  =   0.95125
                         Density of water  =   0.99984
                                  Total H  = 1.110124e+02
                                  Total O  = 5.550622e+01

----------------------------Distribution of species----------------------------

                                                    MacInnes  MacInnes
                                MacInnes       Log       Log       Log    mole V
   Species          Molality    Activity  Molality  Activity     Gamma   cm³/mol

   H+              2.597e-08   5.347e-08    -7.586    -7.272     0.314      0.00
   OH-             2.597e-08   1.875e-08    -7.586    -7.727    -0.141     -0.26
   H2O             5.551e+01   8.703e-01     1.744    -0.060     0.000     18.02
Cl            4.054e+00
   Cl-             4.054e+00   2.150e+00     0.608     0.332    -0.275     18.39
K             3.054e+00
   K+              3.054e+00   1.678e+00     0.485     0.225    -0.260     10.85
Na            1.000e+00
   Na+             1.000e+00   6.890e-01     0.000    -0.162    -0.162     -0.30

------------------------------Saturation indices-------------------------------

  Phase               SI** log IAP   log K(273 K,   1 atm)

  H2O(g)           -2.27     -0.06    2.21  H2O
  Halite           -1.33      0.17    1.50  NaCl
  Sylvite           0.00      0.56    0.56  KCl

**For a gas, SI = log10(fugacity). Fugacity = pressure * phi / 1 atm.
  For ideal gases, phi = 1.

Reaction step 4.

Using solution 1.	
Using pure phase assemblage 1.	
Using reaction 1.	

Reaction 1.	

	  5.000e-01 moles of the following reaction have been added:

	                 Relative
	Reactant            moles

	K                   -1.00000
	Na                   1.00000

	                 Relative
	Element             moles
	K                   -1.00000
	Na                   1.00000

-------------------------------Phase assemblage--------------------------------

                                                      Moles in assemblage
Phase               SI  log IAP  log K(T, P)   Initial       Final       Delta

Halite           -1.10     0.40      1.50    0.000e+00           0   0.000e+00
Sylvite           0.00     0.56      0.56    1.695e+01   1.670e+01  -2.485e-01

-----------------------------Solution composition------------------------------

	Elements           Molality       Moles

	Cl                4.302e+00   4.302e+00
	K                 2.802e+00   2.802e+00
	Na                1.500e+00   1.500e+00

----------------------------Description of solution----------------------------

                                       pH  =   7.229      Charge balance
                                       pe  =   4.000      Adjusted to redox equilibrium
      Specific Conductance (µS/cm,   0°C)  = 187397
                          Density (g/cm³)  =   1.16789
                               Volume (L)  =   1.11019
                        Viscosity (mPa s)  =   1.90454
                        Activity of water  =   0.860
                 Ionic strength (mol/kgw)  =   4.302e+00
                       Mass of water (kg)  =   1.000e+00
                 Total alkalinity (eq/kg)  =  -1.247e-15
                         Temperature (°C)  =   0.00
                  Electrical balance (eq)  =  -8.818e-09
 Percent error, 100*(Cat-|An|)/(Cat+|An|)  =  -0.00
                               Iterations  =   7
                         Gamma iterations  =   3
                      Osmotic coefficient  =   0.97300
                         Density of water  =   0.99984
                                  Total H  = 1.110124e+02
                                  Total O  = 5.550622e+01

----------------------------Distribution of species----------------------------

                                                    MacInnes  MacInnes
                                MacInnes       Log       Log       Log    mole V
   Species          Molality    Activity  Molality  Activity     Gamma   cm³/mol

   H+              2.486e-08   5.898e-08    -7.605    -7.229     0.375      0.00
   OH-             2.486e-08   1.680e-08    -7.605    -7.775    -0.170      0.05
   H2O             5.551e+01   8.600e-01     1.744    -0.066     0.000     18.02
Cl            4.302e+00
   Cl-             4.302e+00   2.289e+00     0.634     0.360    -0.274     18.47
K             2.802e+00
   K+              2.802e+00   1.576e+00     0.447     0.198    -0.250     11.02
Na            1.500e+00
   Na+             1.500e+00   1.103e+00     0.176     0.043    -0.134     -0.20

------------------------------Saturation indices-------------------------------

  Phase               SI** log IAP   log K(273 K,   1 atm)

  H2O(g)           -2.28     -0.07    2.21  H2O
  Halite           -1.10      0.40    1.50  NaCl
  Sylvite           0.00      0.56    0.56  KCl

**For a gas, SI = log10(fugacity). Fugacity = pressure * phi / 1 atm.
  For ideal gases, phi = 1.

Reaction step 5.

Using solution 1.	
Using pure phase assemblage 1.	
Using reaction 1.	

Reaction 1.	

	  5.000e-01 moles of the following reaction have been added:

	                 Relative
	Reactant            moles

	K                   -1.00000
	Na                   1.00000

	                 Relative
	Element             moles
	K                   -1.00000
	Na                   1.00000

-------------------------------Phase assemblage--------------------------------

                                                      Moles in assemblage
Phase               SI  log IAP  log K(T, P)   Initial       Final       Delta

Halite           -0.92     0.58      1.50    0.000e+00           0   0.000e+00
Sylvite           0.00     0.56      0.56    1.670e+01   1.644e+01  -2.605e-01

-----------------------------Solution composition------------------------------

	Elements           Molality       Moles

	Cl                4.563e+00   4.563e+00
	K                 2.563e+00   2.563e+00
	Na                2.000e+00   2.000e+00

----------------------------Description of solution----------------------------

                                       pH  =   7.186      Charge balance
                                       pe  =   4.000      Adjusted to redox equilibrium
      Specific Conductance (µS/cm,   0°C)  = 186139
                          Density (g/cm³)  =   1.17487
                               Volume (L)  =   1.11327
                        Viscosity (mPa s)  =   2.02778
                        Activity of water  =   0.849
                 Ionic strength (mol/kgw)  =   4.563e+00
                       Mass of water (kg)  =   1.000e+00
                 Total alkalinity (eq/kg)  =  -2.198e-15
                         Temperature (°C)  =   0.00
                  Electrical balance (eq)  =  -8.819e-09
 Percent error, 100*(Cat-|An|)/(Cat+|An|)  =  -0.00
                               Iterations  =   8
                         Gamma iterations  =   3
                      Osmotic coefficient  =   0.99772
                         Density of water  =   0.99984
                                  Total H  = 1.110124e+02
                                  Total O  = 5.550622e+01

----------------------------Distribution of species----------------------------

                                                    MacInnes  MacInnes
                                MacInnes       Log       Log       Log    mole V
   Species          Molality    Activity  Molality  Activity     Gamma   cm³/mol

   H+              2.368e-08   6.512e-08    -7.626    -7.186     0.439      0.00
   OH-             2.368e-08   1.502e-08    -7.626    -7.823    -0.198      0.38
   H2O             5.551e+01   8.487e-01     1.744    -0.071     0.000     18.02
Cl            4.563e+00
   Cl-             4.563e+00   2.438e+00     0.659     0.387    -0.272     18.54
K             2.563e+00
   K+              2.563e+00   1.479e+00     0.409     0.170    -0.239     11.19
Na            2.000e+00
   Na+             2.000e+00   1.576e+00     0.301     0.198    -0.103     -0.09

------------------------------Saturation indices-------------------------------

  Phase               SI** log IAP   log K(273 K,   1 atm)

  H2O(g)           -2.28     -0.07    2.21  H2O
  Halite           -0.92      0.58    1.50  NaCl
  Sylvite           0.00      0.56    0.56  KCl

**For a gas, SI = log10(fugacity). Fugacity = pressure * phi / 1 atm.
  For ideal gases, phi = 1.

Reaction step 6.

Using solution 1.	
Using pure phase assemblage 1.	
Using reaction 1.	

Reaction 1.	

	  5.000e-01 moles of the following reaction have been added:

	                 Relative
	Reactant            moles

	K                   -1.00000
	Na                   1.00000

	                 Relative
	Element             moles
	K                   -1.00000
	Na                   1.00000

-------------------------------Phase assemblage--------------------------------

                                                      Moles in assemblage
Phase               SI  log IAP  log K(T, P)   Initial       Final       Delta

Halite           -0.76     0.74      1.50    0.000e+00           0   0.000e+00
Sylvite           0.00     0.56      0.56    1.644e+01   1.616e+01  -2.726e-01

-----------------------------Solution composition------------------------------

	Elements           Molality       Moles

	Cl                4.835e+00   4.835e+00
	K                 2.335e+00   2.335e+00
	Na                2.500e+00   2.500e+00

----------------------------Description of solution----------------------------

                                       pH  =   7.143      Charge balance
                                       pe  =   4.000      Adjusted to redox equilibrium
      Specific Conductance (µS/cm,   0°C)  = 184406
                          Density (g/cm³)  =   1.18213
                               Volume (L)  =   1.11680
                        Viscosity (mPa s)  =   2.16340
                        Activity of water  =   0.836
                 Ionic strength (mol/kgw)  =   4.835e+00
                       Mass of water (kg)  =   1.000e+00
                 Total alkalinity (eq/kg)  =  -2.091e-15
                         Temperature (°C)  =   0.00
                  Electrical balance (eq)  =  -8.821e-09
 Percent error, 100*(Cat-|An|)/(Cat+|An|)  =  -0.00
                               Iterations  =   8
                         Gamma iterations  =   3
                      Osmotic coefficient  =   1.02533
                         Density of water  =   0.99984
                                  Total H  = 1.110124e+02
                                  Total O  = 5.550622e+01

----------------------------Distribution of species----------------------------

                                                    MacInnes  MacInnes
                                MacInnes       Log       Log       Log    mole V
   Species          Molality    Activity  Molality  Activity     Gamma   cm³/mol

   H+              2.243e-08   7.198e-08    -7.649    -7.143     0.506      0.00
   OH-             2.243e-08   1.339e-08    -7.649    -7.873    -0.224      0.73
   H2O             5.551e+01   8.364e-01     1.744    -0.078     0.000     18.02
Cl            4.835e+00
   Cl-             4.835e+00   2.599e+00     0.684     0.415    -0.270     18.62
K             2.335e+00
   K+              2.335e+00   1.388e+00     0.368     0.142    -0.226     11.38
Na            2.500e+00
   Na+             2.500e+00   2.123e+00     0.398     0.327    -0.071      0.01

------------------------------Saturation indices-------------------------------

  Phase               SI** log IAP   log K(273 K,   1 atm)

  H2O(g)           -2.29     -0.08    2.21  H2O
  Halite           -0.76      0.74    1.50  NaCl
  Sylvite           0.00      0.56    0.56  KCl

**For a gas, SI = log10(fugacity). Fugacity = pressure * phi / 1 atm.
  For ideal gases, phi = 1.

Reaction step 7.

Using solution 1.	
Using pure phase assemblage 1.	
Using reaction 1.	

Reaction 1.	

	  5.000e-01 moles of the following reaction have been added:

	                 Relative
	Reactant            moles

	K                   -1.00000
	Na                   1.00000

	                 Relative
	Element             moles
	K                   -1.00000
	Na                   1.00000

-------------------------------Phase assemblage--------------------------------

                                                      Moles in assemblage
Phase               SI  log IAP  log K(T, P)   Initial       Final       Delta

Halite           -0.62     0.88      1.50    0.000e+00           0   0.000e+00
Sylvite           0.00     0.56      0.56    1.616e+01   1.588e+01  -2.848e-01

-----------------------------Solution composition------------------------------

	Elements           Molality       Moles

	Cl                5.120e+00   5.120e+00
	K                 2.120e+00   2.120e+00
	Na                3.000e+00   3.000e+00

----------------------------Description of solution----------------------------

                                       pH  =   7.099      Charge balance
                                       pe  =   4.000      Adjusted to redox equilibrium
      Specific Conductance (µS/cm,   0°C)  = 182271
                          Density (g/cm³)  =   1.18966
                               Volume (L)  =   1.12080
                        Viscosity (mPa s)  =   2.31151
                        Activity of water  =   0.823
                 Ionic strength (mol/kgw)  =   5.120e+00
                       Mass of water (kg)  =   1.000e+00
                 Total alkalinity (eq/kg)  =  -9.971e-16
                         Temperature (°C)  =   0.00
                  Electrical balance (eq)  =  -8.824e-09
 Percent error, 100*(Cat-|An|)/(Cat+|An|)  =  -0.00
                               Iterations  =   8
                         Gamma iterations  =   3
                      Osmotic coefficient  =   1.05574
                         Density of water  =   0.99984
                                  Total H  = 1.110124e+02
                                  Total O  = 5.550622e+01

----------------------------Distribution of species----------------------------

                                                    MacInnes  MacInnes
                                MacInnes       Log       Log       Log    mole V
   Species          Molality    Activity  Molality  Activity     Gamma   cm³/mol

   H+              2.114e-08   7.963e-08    -7.675    -7.099     0.576      0.00
   OH-             2.114e-08   1.191e-08    -7.675    -7.924    -0.249      1.09
   H2O             5.551e+01   8.230e-01     1.744    -0.085     0.000     18.02
Cl            5.120e+00
   Cl-             5.120e+00   2.771e+00     0.709     0.443    -0.267     18.70
K             2.120e+00
   K+              2.120e+00   1.302e+00     0.326     0.115    -0.212     11.57
Na            3.000e+00
   Na+             3.000e+00   2.758e+00     0.477     0.441    -0.037      0.12

------------------------------Saturation indices-------------------------------

  Phase               SI** log IAP   log K(273 K,   1 atm)

  H2O(g)           -2.29     -0.08    2.21  H2O
  Halite           -0.62      0.88    1.50  NaCl
  Sylvite           0.00      0.56    0.56  KCl

**For a gas, SI = log10(fugacity). Fugacity = pressure * phi / 1 atm.
  For ideal gases, phi = 1.

Reaction step 8.

Using solution 1.	
Using pure phase assemblage 1.	
Using reaction 1.	

Reaction 1.	

	  5.000e-01 moles of the following reaction have been added:

	                 Relative
	Reactant            moles

	K                   -1.00000
	Na                   1.00000

	                 Relative
	Element             moles
	K                   -1.00000
	Na                   1.00000

-------------------------------Phase assemblage--------------------------------

                                                      Moles in assemblage
Phase               SI  log IAP  log K(T, P)   Initial       Final       Delta

Halite           -0.49     1.02      1.50    0.000e+00           0   0.000e+00
Sylvite           0.00     0.56      0.56    1.588e+01   1.558e+01  -2.970e-01

-----------------------------Solution composition------------------------------

	Elements           Molality       Moles

	Cl                5.417e+00   5.417e+00
	K                 1.917e+00   1.917e+00
	Na                3.500e+00   3.500e+00

----------------------------Description of solution----------------------------

                                       pH  =   7.055      Charge balance
                                       pe  =   4.000      Adjusted to redox equilibrium
      Specific Conductance (µS/cm,   0°C)  = 179801
                          Density (g/cm³)  =   1.19745
                               Volume (L)  =   1.12528
                        Viscosity (mPa s)  =   2.47221
                        Activity of water  =   0.809
                 Ionic strength (mol/kgw)  =   5.417e+00
                       Mass of water (kg)  =   1.000e+00
                 Total alkalinity (eq/kg)  =  -8.494e-16
                         Temperature (°C)  =   0.00
                  Electrical balance (eq)  =  -8.829e-09
 Percent error, 100*(Cat-|An|)/(Cat+|An|)  =  -0.00
                               Iterations  =   9
                         Gamma iterations  =   3
                      Osmotic coefficient  =   1.08891
                         Density of water  =   0.99984
                                  Total H  = 1.110124e+02
                                  Total O  = 5.550622e+01

----------------------------Distribution of species----------------------------

                                                    MacInnes  MacInnes
                                MacInnes       Log       Log       Log    mole V
   Species          Molality    Activity  Molality  Activity     Gamma   cm³/mol

   H+              1.981e-08   8.818e-08    -7.703    -7.055     0.648      0.00
   OH-             1.981e-08   1.057e-08    -7.703    -7.976    -0.273      1.46
   H2O             5.551e+01   8.085e-01     1.744    -0.092     0.000     18.02
Cl            5.417e+00
   Cl-             5.417e+00   2.956e+00     0.734     0.471    -0.263     18.79
K             1.917e+00
   K+              1.917e+00   1.220e+00     0.283     0.086    -0.196     11.77
Na            3.500e+00
   Na+             3.500e+00   3.502e+00     0.544     0.544     0.000      0.23

------------------------------Saturation indices-------------------------------

  Phase               SI** log IAP   log K(273 K,   1 atm)

  H2O(g)           -2.30     -0.09    2.21  H2O
  Halite           -0.49      1.02    1.50  NaCl
  Sylvite           0.00      0.56    0.56  KCl

**For a gas, SI = log10(fugacity). Fugacity = pressure * phi / 1 atm.
  For ideal gases, phi = 1.

Reaction step 9.

Using solution 1.	
Using pure phase assemblage 1.	
Using reaction 1.	

Reaction 1.	

	  5.000e-01 moles of the following reaction have been added:

	                 Relative
	Reactant            moles

	K                   -1.00000
	Na                   1.00000

	                 Relative
	Element             moles
	K                   -1.00000
	Na                   1.00000

-------------------------------Phase assemblage--------------------------------

                                                      Moles in assemblage
Phase               SI  log IAP  log K(T, P)   Initial       Final       Delta

Halite           -0.36     1.14      1.50    0.000e+00           0   0.000e+00
Sylvite           0.00     0.56      0.56    1.558e+01   1.527e+01  -3.093e-01

-----------------------------Solution composition------------------------------

	Elements           Molality       Moles

	Cl                5.726e+00   5.726e+00
	K                 1.726e+00   1.726e+00
	Na                4.000e+00   4.000e+00

----------------------------Description of solution----------------------------

                                       pH  =   7.010      Charge balance
                                       pe  =   4.000      Adjusted to redox equilibrium
      Specific Conductance (µS/cm,   0°C)  = 177062
                          Density (g/cm³)  =   1.20546
                               Volume (L)  =   1.13025
                        Viscosity (mPa s)  =   2.64565
                        Activity of water  =   0.793
                 Ionic strength (mol/kgw)  =   5.726e+00
                       Mass of water (kg)  =   1.000e+00
                 Total alkalinity (eq/kg)  =  -2.087e-15
                         Temperature (°C)  =   0.00
                  Electrical balance (eq)  =  -8.836e-09
 Percent error, 100*(Cat-|An|)/(Cat+|An|)  =  -0.00
                               Iterations  =   8
                         Gamma iterations  =   3
                      Osmotic coefficient  =   1.12480
                         Density of water  =   0.99984
                                  Total H  = 1.110124e+02
                                  Total O  = 5.550622e+01

----------------------------Distribution of species----------------------------

                                                    MacInnes  MacInnes
                                MacInnes       Log       Log       Log    mole V
   Species          Molality    Activity  Molality  Activity     Gamma   cm³/mol

   H+              1.847e-08   9.774e-08    -7.734    -7.010     0.724      0.00
   OH-             1.847e-08   9.347e-09    -7.734    -8.029    -0.296      1.84
   H2O             5.551e+01   7.929e-01     1.744    -0.101     0.000     18.02
Cl            5.726e+00
   Cl-             5.726e+00   3.156e+00     0.758     0.499    -0.259     18.87
K             1.726e+00
   K+              1.726e+00   1.143e+00     0.237     0.058    -0.179     11.97
Na            4.000e+00
   Na+             4.000e+00   4.382e+00     0.602     0.642     0.040      0.34

------------------------------Saturation indices-------------------------------

  Phase               SI** log IAP   log K(273 K,   1 atm)

  H2O(g)           -2.31     -0.10    2.21  H2O
  Halite           -0.36      1.14    1.50  NaCl
  Sylvite           0.00      0.56    0.56  KCl

**For a gas, SI = log10(fugacity). Fugacity = pressure * phi / 1 atm.
  For ideal gases, phi = 1.

Reaction step 10.

Using solution 1.	
Using pure phase assemblage 1.	
Using reaction 1.	

Reaction 1.	

	  5.000e-01 moles of the following reaction have been added:

	                 Relative
	Reactant            moles

	K                   -1.00000
	Na                   1.00000

	                 Relative
	Element             moles
	K                   -1.00000
	Na                   1.00000

-------------------------------Phase assemblage--------------------------------

                                                      Moles in assemblage
Phase               SI  log IAP  log K(T, P)   Initial       Final       Delta

Halite           -0.24     1.26      1.50    0.000e+00           0   0.000e+00
Sylvite           0.00     0.56      0.56    1.527e+01   1.495e+01  -3.215e-01

-----------------------------Solution composition------------------------------

	Elements           Molality       Moles

	Cl                6.048e+00   6.048e+00
	K                 1.548e+00   1.548e+00
	Na                4.500e+00   4.500e+00

----------------------------Description of solution----------------------------

                                       pH  =   6.965      Charge balance
                                       pe  =   4.000      Adjusted to redox equilibrium
      Specific Conductance (µS/cm,   0°C)  = 174111
                          Density (g/cm³)  =   1.21367
                               Volume (L)  =   1.13572
                        Viscosity (mPa s)  =   2.83198
                        Activity of water  =   0.776
                 Ionic strength (mol/kgw)  =   6.048e+00
                       Mass of water (kg)  =   1.000e+00
                 Total alkalinity (eq/kg)  =  -2.149e-15
                         Temperature (°C)  =   0.00
                  Electrical balance (eq)  =  -8.845e-09
 Percent error, 100*(Cat-|An|)/(Cat+|An|)  =  -0.00
                               Iterations  =   8
                         Gamma iterations  =   3
                      Osmotic coefficient  =   1.16340
                         Density of water  =   0.99984
                                  Total H  = 1.110124e+02
                                  Total O  = 5.550622e+01

----------------------------Distribution of species----------------------------

                                                    MacInnes  MacInnes
                                MacInnes       Log       Log       Log    mole V
   Species          Molality    Activity  Molality  Activity     Gamma   cm³/mol

   H+              1.712e-08   1.084e-07    -7.766    -6.965     0.802      0.00
   OH-             1.712e-08   8.247e-09    -7.766    -8.084    -0.317      2.24
   H2O             5.551e+01   7.761e-01     1.744    -0.110     0.000     18.02
Cl            6.048e+00
   Cl-             6.048e+00   3.371e+00     0.782     0.528    -0.254     18.96
K             1.548e+00
   K+              1.548e+00   1.070e+00     0.190     0.029    -0.160     12.19
Na            4.500e+00
   Na+             4.500e+00   5.428e+00     0.653     0.735     0.081      0.45

------------------------------Saturation indices-------------------------------

  Phase               SI** log IAP   log K(273 K,   1 atm)

  H2O(g)           -2.32     -0.11    2.21  H2O
  Halite           -0.24      1.26    1.50  NaCl
  Sylvite           0.00      0.56    0.56  KCl

**For a gas, SI = log10(fugacity). Fugacity = pressure * phi / 1 atm.
  For ideal gases, phi = 1.

Reaction step 11.

Using solution 1.	
Using pure phase assemblage 1.	
Using reaction 1.	

Reaction 1.	

	  5.000e-01 moles of the following reaction have been added:

	                 Relative
	Reactant            moles

	K                   -1.00000
	Na                   1.00000

	                 Relative
	Element             moles
	K                   -1.00000
	Na                   1.00000

-------------------------------Phase assemblage--------------------------------

                                                      Moles in assemblage
Phase               SI  log IAP  log K(T, P)   Initial       Final       Delta

Halite           -0.12     1.38      1.50    0.000e+00           0   0.000e+00
Sylvite           0.00     0.56      0.56    1.495e+01   1.462e+01  -3.338e-01

-----------------------------Solution composition------------------------------

	Elements           Molality       Moles

	Cl                6.382e+00   6.382e+00
	K                 1.382e+00   1.382e+00
	Na                5.000e+00   5.000e+00

----------------------------Description of solution----------------------------

                                       pH  =   6.919      Charge balance
                                       pe  =   4.000      Adjusted to redox equilibrium
      Specific Conductance (µS/cm,   0°C)  = 170996
                          Density (g/cm³)  =   1.22206
                               Volume (L)  =   1.14169
                        Viscosity (mPa s)  =   3.03139
                        Activity of water  =   0.758
                 Ionic strength (mol/kgw)  =   6.382e+00
                       Mass of water (kg)  =   1.000e+00
                 Total alkalinity (eq/kg)  =  -2.996e-15
                         Temperature (°C)  =   0.00
                  Electrical balance (eq)  =  -8.859e-09
 Percent error, 100*(Cat-|An|)/(Cat+|An|)  =  -0.00
                               Iterations  =   8
                         Gamma iterations  =   3
                      Osmotic coefficient  =   1.20470
                         Density of water  =   0.99984
                                  Total H  = 1.110124e+02
                                  Total O  = 5.550622e+01

----------------------------Distribution of species----------------------------

                                                    MacInnes  MacInnes
                                MacInnes       Log       Log       Log    mole V
   Species          Molality    Activity  Molality  Activity     Gamma   cm³/mol

   H+              1.578e-08   1.204e-07    -7.802    -6.919     0.882      0.00
   OH-             1.578e-08   7.255e-09    -7.802    -8.139    -0.338      2.66
   H2O             5.551e+01   7.581e-01     1.744    -0.120     0.000     18.02
Cl            6.382e+00
   Cl-             6.382e+00   3.603e+00     0.805     0.557    -0.248     19.05
K             1.382e+00
   K+              1.382e+00   1.001e+00     0.140     0.000    -0.140     12.41
Na            5.000e+00
   Na+             5.000e+00   6.683e+00     0.699     0.825     0.126      0.57

------------------------------Saturation indices-------------------------------

  Phase               SI** log IAP   log K(273 K,   1 atm)

  H2O(g)           -2.33     -0.12    2.21  H2O
  Halite           -0.12      1.38    1.50  NaCl
  Sylvite           0.00      0.56    0.56  KCl

**For a gas, SI = log10(fugacity). Fugacity = pressure * phi / 1 atm.
  For ideal gases, phi = 1.

Reaction step 12.

Using solution 1.	
Using pure phase assemblage 1.	
Using reaction 1.	

Reaction 1.	

	  5.000e-01 moles of the following reaction have been added:

	                 Relative
	Reactant            moles

	K                   -1.00000
	Na                   1.00000

	                 Relative
	Element             moles
	K                   -1.00000
	Na                   1.00000

-------------------------------Phase assemblage--------------------------------

                                                      Moles in assemblage
Phase               SI  log IAP  log K(T, P)   Initial       Final       Delta

Halite           -0.00     1.50      1.50    0.000e+00           0   0.000e+00
Sylvite           0.00     0.56      0.56    1.462e+01   1.427e+01  -3.459e-01

-----------------------------Solution composition------------------------------

	Elements           Molality       Moles

	Cl                6.728e+00   6.728e+00
	K                 1.227e+00   1.227e+00
	Na                5.500e+00   5.500e+00

----------------------------Description of solution----------------------------

                                       pH  =   6.874      Charge balance
                                       pe  =   4.000      Adjusted to redox equilibrium
      Specific Conductance (µS/cm,   0°C)  = 167760
                          Density (g/cm³)  =   1.23060
                               Volume (L)  =   1.14818
                        Viscosity (mPa s)  =   3.24411
                        Activity of water  =   0.739
                 Ionic strength (mol/kgw)  =   6.728e+00
                       Mass of water (kg)  =   1.000e+00
                 Total alkalinity (eq/kg)  =  -3.947e-15
                         Temperature (°C)  =   0.00
                  Electrical balance (eq)  =  -8.876e-09
 Percent error, 100*(Cat-|An|)/(Cat+|An|)  =  -0.00
                               Iterations  =   8
                         Gamma iterations  =   3
                      Osmotic coefficient  =   1.24871
                         Density of water  =   0.99984
                                  Total H  = 1.110124e+02
                                  Total O  = 5.550622e+01

----------------------------Distribution of species----------------------------

                                                    MacInnes  MacInnes
                                MacInnes       Log       Log       Log    mole V
   Species          Molality    Activity  Molality  Activity     Gamma   cm³/mol

   H+              1.447e-08   1.338e-07    -7.840    -6.874     0.966      0.00
   OH-             1.447e-08   6.363e-09    -7.840    -8.196    -0.357      3.09
   H2O             5.551e+01   7.388e-01     1.744    -0.131     0.000     18.02
Cl            6.728e+00
   Cl-             6.728e+00   3.854e+00     0.828     0.586    -0.242     19.14
K             1.227e+00
   K+              1.227e+00   9.360e-01     0.089    -0.029    -0.118     12.64
Na            5.500e+00
   Na+             5.500e+00   8.197e+00     0.740     0.914     0.173      0.68

------------------------------Saturation indices-------------------------------

  Phase               SI** log IAP   log K(273 K,   1 atm)

  H2O(g)           -2.34     -0.13    2.21  H2O
  Halite           -0.00      1.50    1.50  NaCl
  Sylvite           0.00      0.56    0.56  KCl

**For a gas, SI = log10(fugacity). Fugacity = pressure * phi / 1 atm.
  For ideal gases, phi = 1.

Reaction step 13.

Using solution 1.	
Using pure phase assemblage 1.	
Using reaction 1.	

Reaction 1.	

	  5.000e-01 moles of the following reaction have been added:

	                 Relative
	Reactant            moles

	K                   -1.00000
	Na                   1.00000

	                 Relative
	Element             moles
	K                   -1.00000
	Na                   1.00000

-------------------------------Phase assemblage--------------------------------

                                                      Moles in assemblage
Phase               SI  log IAP  log K(T, P)   Initial       Final       Delta

Halite            0.00     1.50      1.50    0.000e+00   4.909e-01   4.909e-01
Sylvite           0.00     0.56      0.56    1.427e+01   1.378e+01  -4.973e-01

-----------------------------Solution composition------------------------------

	Elements           Molality       Moles

	Cl                6.734e+00   6.734e+00
	K                 1.225e+00   1.225e+00
	Na                5.509e+00   5.509e+00

----------------------------Description of solution----------------------------

                                       pH  =   6.873      Charge balance
                                       pe  =   4.000      Adjusted to redox equilibrium
      Specific Conductance (µS/cm,   0°C)  = 167701
                          Density (g/cm³)  =   1.23075
                               Volume (L)  =   1.14830
                        Viscosity (mPa s)  =   3.24809
                        Activity of water  =   0.738
                 Ionic strength (mol/kgw)  =   6.734e+00
                       Mass of water (kg)  =   1.000e+00
                 Total alkalinity (eq/kg)  =  -5.125e-15
                         Temperature (°C)  =   0.00
                  Electrical balance (eq)  =  -9.601e-09
 Percent error, 100*(Cat-|An|)/(Cat+|An|)  =  -0.00
                               Iterations  =   7
                         Gamma iterations  =   3
                      Osmotic coefficient  =   1.24953
                         Density of water  =   0.99984
                                  Total H  = 1.110124e+02
                                  Total O  = 5.550622e+01

----------------------------Distribution of species----------------------------

                                                    MacInnes  MacInnes
                                MacInnes       Log       Log       Log    mole V
   Species          Molality    Activity  Molality  Activity     Gamma   cm³/mol

   H+              1.445e-08   1.341e-07    -7.840    -6.873     0.968      0.00
   OH-             1.445e-08   6.347e-09    -7.840    -8.197    -0.357      3.09
   H2O             5.551e+01   7.385e-01     1.744    -0.132     0.000     18.02
Cl            6.734e+00
   Cl-             6.734e+00   3.859e+00     0.828     0.586    -0.242     19.14
K             1.225e+00
   K+              1.225e+00   9.348e-01     0.088    -0.029    -0.117     12.65
Na            5.509e+00
   Na+             5.509e+00   8.227e+00     0.741     0.915     0.174      0.68

------------------------------Saturation indices-------------------------------

  Phase               SI** log IAP   log K(273 K,   1 atm)

  H2O(g)           -2.34     -0.13    2.21  H2O
  Halite            0.00      1.50    1.50  NaCl
  Sylvite           0.00      0.56    0.56  KCl

**For a gas, SI = log10(fugacity). Fugacity = pressure * phi / 1 atm.
  For ideal gases, phi = 1.

Reaction step 14.

Using solution 1.	
Using pure phase assemblage 1.	
Using reaction 1.	

Reaction 1.	

	  5.000e-01 moles of the following reaction have been added:

	                 Relative
	Reactant            moles

	K                   -1.00000
	Na                   1.00000

	                 Relative
	Element             moles
	K                   -1.00000
	Na                   1.00000

-------------------------------Phase assemblage--------------------------------

                                                      Moles in assemblage
Phase               SI  log IAP  log K(T, P)   Initial       Final       Delta

Halite            0.00     1.50      1.50    4.909e-01   9.909e-01   5.000e-01
Sylvite           0.00     0.56      0.56    1.378e+01   1.328e+01  -5.000e-01

-----------------------------Solution composition------------------------------

	Elements           Molality       Moles

	Cl                6.734e+00   6.734e+00
	K                 1.225e+00   1.225e+00
	Na                5.509e+00   5.509e+00

----------------------------Description of solution----------------------------

                                       pH  =   6.873      Charge balance
                                       pe  =   4.000      Adjusted to redox equilibrium
      Specific Conductance (µS/cm,   0°C)  = 167701
                          Density (g/cm³)  =   1.23075
                               Volume (L)  =   1.14830
                        Viscosity (mPa s)  =   3.24809
                        Activity of water  =   0.738
                 Ionic strength (mol/kgw)  =   6.734e+00
                       Mass of water (kg)  =   1.000e+00
                 Total alkalinity (eq/kg)  =  -5.133e-15
                         Temperature (°C)  =   0.00
                  Electrical balance (eq)  =  -9.601e-09
 Percent error, 100*(Cat-|An|)/(Cat+|An|)  =  -0.00
                               Iterations  =   1
                         Gamma iterations  =   1
                      Osmotic coefficient  =   1.24953
                         Density of water  =   0.99984
                                  Total H  = 1.110124e+02
                                  Total O  = 5.550622e+01

----------------------------Distribution of species----------------------------

                                                    MacInnes  MacInnes
                                MacInnes       Log       Log       Log    mole V
   Species          Molality    Activity  Molality  Activity     Gamma   cm³/mol

   H+              1.445e-08   1.341e-07    -7.840    -6.873     0.968      0.00
   OH-             1.445e-08   6.347e-09    -7.840    -8.197    -0.357      3.09
   H2O             5.551e+01   7.385e-01     1.744    -0.132     0.000     18.02
Cl            6.734e+00
   Cl-             6.734e+00   3.859e+00     0.828     0.586    -0.242     19.14
K             1.225e+00
   K+              1.225e+00   9.348e-01     0.088    -0.029    -0.117     12.65
Na            5.509e+00
   Na+             5.509e+00   8.227e+00     0.741     0.915     0.174      0.68

------------------------------Saturation indices-------------------------------

  Phase               SI** log IAP   log K(273 K,   1 atm)

  H2O(g)           -2.34     -0.13    2.21  H2O
  Halite            0.00      1.50    1.50  NaCl
  Sylvite           0.00      0.56    0.56  KCl

**For a gas, SI = log10(fugacity). Fugacity = pressure * phi / 1 atm.
  For ideal gases, phi = 1.

Reaction step 15.

Using solution 1.	
Using pure phase assemblage 1.	
Using reaction 1.	

Reaction 1.	

	  5.000e-01 moles of the following reaction have been added:

	                 Relative
	Reactant            moles

	K                   -1.00000
	Na                   1.00000

	                 Relative
	Element             moles
	K                   -1.00000
	Na                   1.00000

-------------------------------Phase assemblage--------------------------------

                                                      Moles in assemblage
Phase               SI  log IAP  log K(T, P)   Initial       Final       Delta

Halite            0.00     1.50      1.50    9.909e-01   1.491e+00   5.000e-01
Sylvite           0.00     0.56      0.56    1.328e+01   1.278e+01  -5.000e-01

-----------------------------Solution composition------------------------------

	Elements           Molality       Moles

	Cl                6.734e+00   6.734e+00
	K                 1.225e+00   1.225e+00
	Na                5.509e+00   5.509e+00

----------------------------Description of solution----------------------------

                                       pH  =   6.873      Charge balance
                                       pe  =   4.000      Adjusted to redox equilibrium
      Specific Conductance (µS/cm,   0°C)  = 167701
                          Density (g/cm³)  =   1.23075
                               Volume (L)  =   1.14830
                        Viscosity (mPa s)  =   3.24809
                        Activity of water  =   0.738
                 Ionic strength (mol/kgw)  =   6.734e+00
                       Mass of water (kg)  =   1.000e+00
                 Total alkalinity (eq/kg)  =  -5.141e-15
                         Temperature (°C)  =   0.00
                  Electrical balance (eq)  =  -9.601e-09
 Percent error, 100*(Cat-|An|)/(Cat+|An|)  =  -0.00
                               Iterations  =   1
                         Gamma iterations  =   1
                      Osmotic coefficient  =   1.24953
                         Density of water  =   0.99984
                                  Total H  = 1.110124e+02
                                  Total O  = 5.550622e+01

----------------------------Distribution of species----------------------------

                                                    MacInnes  MacInnes
                                MacInnes       Log       Log       Log    mole V
   Species          Molality    Activity  Molality  Activity     Gamma   cm³/mol

   H+              1.445e-08   1.341e-07    -7.840    -6.873     0.968      0.00
   OH-             1.445e-08   6.347e-09    -7.840    -8.197    -0.357      3.09
   H2O             5.551e+01   7.385e-01     1.744    -0.132     0.000     18.02
Cl            6.734e+00
   Cl-             6.734e+00   3.859e+00     0.828     0.586    -0.242     19.14
K             1.225e+00
   K+              1.225e+00   9.348e-01     0.088    -0.029    -0.117     12.65
Na            5.509e+00
   Na+             5.509e+00   8.227e+00     0.741     0.915     0.174      0.68

------------------------------Saturation indices-------------------------------

  Phase               SI** log IAP   log K(273 K,   1 atm)

  H2O(g)           -2.34     -0.13    2.21  H2O
  Halite            0.00      1.50    1.50  NaCl
  Sylvite           0.00      0.56    0.56  KCl

**For a gas, SI = log10(fugacity). Fugacity = pressure * phi / 1 atm.
  For ideal gases, phi = 1.

Reaction step 16.

Using solution 1.	
Using pure phase assemblage 1.	
Using reaction 1.	

Reaction 1.	

	  5.000e-01 moles of the following reaction have been added:

	                 Relative
	Reactant            moles

	K                   -1.00000
	Na                   1.00000

	                 Relative
	Element             moles
	K                   -1.00000
	Na                   1.00000

-------------------------------Phase assemblage--------------------------------

                                                      Moles in assemblage
Phase               SI  log IAP  log K(T, P)   Initial       Final       Delta

Halite            0.00     1.50      1.50    1.491e+00   1.991e+00   5.000e-01
Sylvite           0.00     0.56      0.56    1.278e+01   1.228e+01  -5.000e-01

-----------------------------Solution composition------------------------------

	Elements           Molality       Moles

	Cl                6.734e+00   6.734e+00
	K                 1.225e+00   1.225e+00
	Na                5.509e+00   5.509e+00

----------------------------Description of solution----------------------------

                                       pH  =   6.873      Charge balance
                                       pe  =   4.000      Adjusted to redox equilibrium
      Specific Conductance (µS/cm,   0°C)  = 167701
                          Density (g/cm³)  =   1.23075
                               Volume (L)  =   1.14830
                        Viscosity (mPa s)  =   3.24809
                        Activity of water  =   0.738
                 Ionic strength (mol/kgw)  =   6.734e+00
                       Mass of water (kg)  =   1.000e+00
                 Total alkalinity (eq/kg)  =  -5.149e-15
                         Temperature (°C)  =   0.00
                  Electrical balance (eq)  =  -9.601e-09
 Percent error, 100*(Cat-|An|)/(Cat+|An|)  =  -0.00
                               Iterations  =   1
                         Gamma iterations  =   1
                      Osmotic coefficient  =   1.24953
                         Density of water  =   0.99984
                                  Total H  = 1.110124e+02
                                  Total O  = 5.550622e+01

----------------------------Distribution of species----------------------------

                                                    MacInnes  MacInnes
                                MacInnes       Log       Log       Log    mole V
   Species          Molality    Activity  Molality  Activity     Gamma   cm³/mol

   H+              1.445e-08   1.341e-07    -7.840    -6.873     0.968      0.00
   OH-             1.445e-08   6.347e-09    -7.840    -8.197    -0.357      3.09
   H2O             5.551e+01   7.385e-01     1.744    -0.132     0.000     18.02
Cl            6.734e+00
   Cl-             6.734e+00   3.859e+00     0.828     0.586    -0.242     19.14
K             1.225e+00
   K+              1.225e+00   9.348e-01     0.088    -0.029    -0.117     12.65
Na            5.509e+00
   Na+             5.509e+00   8.227e+00     0.741     0.915     0.174      0.68

------------------------------Saturation indices-------------------------------

  Phase               SI** log IAP   log K(273 K,   1 atm)

  H2O(g)           -2.34     -0.13    2.21  H2O
  Halite            0.00      1.50    1.50  NaCl
  Sylvite           0.00      0.56    0.56  KCl

**For a gas, SI = log10(fugacity). Fugacity = pressure * phi / 1 atm.
  For ideal gases, phi = 1.

Reaction step 17.

Using solution 1.	
Using pure phase assemblage 1.	
Using reaction 1.	

Reaction 1.	

	  5.000e-01 moles of the following reaction have been added:

	                 Relative
	Reactant            moles

	K                   -1.00000
	Na                   1.00000

	                 Relative
	Element             moles
	K                   -1.00000
	Na                   1.00000

-------------------------------Phase assemblage--------------------------------

                                                      Moles in assemblage
Phase               SI  log IAP  log K(T, P)   Initial       Final       Delta

Halite            0.00     1.50      1.50    1.991e+00   2.491e+00   5.000e-01
Sylvite           0.00     0.56      0.56    1.228e+01   1.178e+01  -5.000e-01

-----------------------------Solution composition------------------------------

	Elements           Molality       Moles

	Cl                6.734e+00   6.734e+00
	K                 1.225e+00   1.225e+00
	Na                5.509e+00   5.509e+00

----------------------------Description of solution----------------------------

                                       pH  =   6.873      Charge balance
                                       pe  =   4.000      Adjusted to redox equilibrium
      Specific Conductance (µS/cm,   0°C)  = 167701
                          Density (g/cm³)  =   1.23075
                               Volume (L)  =   1.14830
                        Viscosity (mPa s)  =   3.24809
                        Activity of water  =   0.738
                 Ionic strength (mol/kgw)  =   6.734e+00
                       Mass of water (kg)  =   1.000e+00
                 Total alkalinity (eq/kg)  =  -5.157e-15
                         Temperature (°C)  =   0.00
                  Electrical balance (eq)  =  -9.601e-09
 Percent error, 100*(Cat-|An|)/(Cat+|An|)  =  -0.00
                               Iterations  =   1
                         Gamma iterations  =   1
                      Osmotic coefficient  =   1.24953
                         Density of water  =   0.99984
                                  Total H  = 1.110124e+02
                                  Total O  = 5.550622e+01

----------------------------Distribution of species----------------------------

                                                    MacInnes  MacInnes
                                MacInnes       Log       Log       Log    mole V
   Species          Molality    Activity  Molality  Activity     Gamma   cm³/mol

   H+              1.445e-08   1.341e-07    -7.840    -6.873     0.968      0.00
   OH-             1.445e-08   6.347e-09    -7.840    -8.197    -0.357      3.09
   H2O             5.551e+01   7.385e-01     1.744    -0.132     0.000     18.02
Cl            6.734e+00
   Cl-             6.734e+00   3.859e+00     0.828     0.586    -0.242     19.14
K             1.225e+00
   K+              1.225e+00   9.348e-01     0.088    -0.029    -0.117     12.65
Na            5.509e+00
   Na+             5.509e+00   8.227e+00     0.741     0.915     0.174      0.68

------------------------------Saturation indices-------------------------------

  Phase               SI** log IAP   log K(273 K,   1 atm)

  H2O(g)           -2.34     -0.13    2.21  H2O
  Halite            0.00      1.50    1.50  NaCl
  Sylvite           0.00      0.56    0.56  KCl

**For a gas, SI = log10(fugacity). Fugacity = pressure * phi / 1 atm.
  For ideal gases, phi = 1.

Reaction step 18.

Using solution 1.	
Using pure phase assemblage 1.	
Using reaction 1.	

Reaction 1.	

	  5.000e-01 moles of the following reaction have been added:

	                 Relative
	Reactant            moles

	K                   -1.00000
	Na                   1.00000

	                 Relative
	Element             moles
	K                   -1.00000
	Na                   1.00000

-------------------------------Phase assemblage--------------------------------

                                                      Moles in assemblage
Phase               SI  log IAP  log K(T, P)   Initial       Final       Delta

Halite            0.00     1.50      1.50    2.491e+00   2.991e+00   5.000e-01
Sylvite           0.00     0.56      0.56    1.178e+01   1.128e+01  -5.000e-01

-----------------------------Solution composition------------------------------

	Elements           Molality       Moles

	Cl                6.734e+00   6.734e+00
	K                 1.225e+00   1.225e+00
	Na                5.509e+00   5.509e+00

----------------------------Description of solution----------------------------

                                       pH  =   6.873      Charge balance
                                       pe  =   4.000      Adjusted to redox equilibrium
      Specific Conductance (µS/cm,   0°C)  = 167701
                          Density (g/cm³)  =   1.23075
                               Volume (L)  =   1.14830
                        Viscosity (mPa s)  =   3.24809
                        Activity of water  =   0.738
                 Ionic strength (mol/kgw)  =   6.734e+00
                       Mass of water (kg)  =   1.000e+00
                 Total alkalinity (eq/kg)  =  -5.165e-15
                         Temperature (°C)  =   0.00
                  Electrical balance (eq)  =  -9.601e-09
 Percent error, 100*(Cat-|An|)/(Cat+|An|)  =  -0.00
                               Iterations  =   1
                         Gamma iterations  =   1
                      Osmotic coefficient  =   1.24953
                         Density of water  =   0.99984
                                  Total H  = 1.110124e+02
                                  Total O  = 5.550622e+01

----------------------------Distribution of species----------------------------

                                                    MacInnes  MacInnes
                                MacInnes       Log       Log       Log    mole V
   Species          Molality    Activity  Molality  Activity     Gamma   cm³/mol

   H+              1.445e-08   1.341e-07    -7.840    -6.873     0.968      0.00
   OH-             1.445e-08   6.347e-09    -7.840    -8.197    -0.357      3.09
   H2O             5.551e+01   7.385e-01     1.744    -0.132     0.000     18.02
Cl            6.734e+00
   Cl-             6.734e+00   3.859e+00     0.828     0.586    -0.242     19.14
K             1.225e+00
   K+              1.225e+00   9.348e-01     0.088    -0.029    -0.117     12.65
Na            5.509e+00
   Na+             5.509e+00   8.227e+00     0.741     0.915     0.174      0.68

------------------------------Saturation indices-------------------------------

  Phase               SI** log IAP   log K(273 K,   1 atm)

  H2O(g)           -2.34     -0.13    2.21  H2O
  Halite            0.00      1.50    1.50  NaCl
  Sylvite           0.00      0.56    0.56  KCl

**For a gas, SI = log10(fugacity). Fugacity = pressure * phi / 1 atm.
  For ideal gases, phi = 1.

Reaction step 19.

Using solution 1.	
Using pure phase assemblage 1.	
Using reaction 1.	

Reaction 1.	

	  5.000e-01 moles of the following reaction have been added:

	                 Relative
	Reactant            moles

	K                   -1.00000
	Na                   1.00000

	                 Relative
	Element             moles
	K                   -1.00000
	Na                   1.00000

-------------------------------Phase assemblage--------------------------------

                                                      Moles in assemblage
Phase               SI  log IAP  log K(T, P)   Initial       Final       Delta

Halite            0.00     1.50      1.50    2.991e+00   3.491e+00   5.000e-01
Sylvite           0.00     0.56      0.56    1.128e+01   1.078e+01  -5.000e-01

-----------------------------Solution composition------------------------------

	Elements           Molality       Moles

	Cl                6.734e+00   6.734e+00
	K                 1.225e+00   1.225e+00
	Na                5.509e+00   5.509e+00

----------------------------Description of solution----------------------------

                                       pH  =   6.873      Charge balance
                                       pe  =   4.000      Adjusted to redox equilibrium
      Specific Conductance (µS/cm,   0°C)  = 167701
                          Density (g/cm³)  =   1.23075
                               Volume (L)  =   1.14830
                        Viscosity (mPa s)  =   3.24809
                        Activity of water  =   0.738
                 Ionic strength (mol/kgw)  =   6.734e+00
                       Mass of water (kg)  =   1.000e+00
                 Total alkalinity (eq/kg)  =  -5.173e-15
                         Temperature (°C)  =   0.00
                  Electrical balance (eq)  =  -9.601e-09
 Percent error, 100*(Cat-|An|)/(Cat+|An|)  =  -0.00
                               Iterations  =   1
                         Gamma iterations  =   1
                      Osmotic coefficient  =   1.24953
                         Density of water  =   0.99984
                                  Total H  = 1.110124e+02
                                  Total O  = 5.550622e+01

----------------------------Distribution of species----------------------------

                                                    MacInnes  MacInnes
                                MacInnes       Log       Log       Log    mole V
   Species          Molality    Activity  Molality  Activity     Gamma   cm³/mol

   H+              1.445e-08   1.341e-07    -7.840    -6.873     0.968      0.00
   OH-             1.445e-08   6.347e-09    -7.840    -8.197    -0.357      3.09
   H2O             5.551e+01   7.385e-01     1.744    -0.132     0.000     18.02
Cl            6.734e+00
   Cl-             6.734e+00   3.859e+00     0.828     0.586    -0.242     19.14
K             1.225e+00
   K+              1.225e+00   9.348e-01     0.088    -0.029    -0.117     12.65
Na            5.509e+00
   Na+             5.509e+00   8.227e+00     0.741     0.915     0.174      0.68

------------------------------Saturation indices-------------------------------

  Phase               SI** log IAP   log K(273 K,   1 atm)

  H2O(g)           -2.34     -0.13    2.21  H2O
  Halite            0.00      1.50    1.50  NaCl
  Sylvite           0.00      0.56    0.56  KCl

**For a gas, SI = log10(fugacity). Fugacity = pressure * phi / 1 atm.
  For ideal gases, phi = 1.

Reaction step 20.

Using solution 1.	
Using pure phase assemblage 1.	
Using reaction 1.	

Reaction 1.	

	  5.000e-01 moles of the following reaction have been added:

	                 Relative
	Reactant            moles

	K                   -1.00000
	Na                   1.00000

	                 Relative
	Element             moles
	K                   -1.00000
	Na                   1.00000

-------------------------------Phase assemblage--------------------------------

                                                      Moles in assemblage
Phase               SI  log IAP  log K(T, P)   Initial       Final       Delta

Halite            0.00     1.50      1.50    3.491e+00   3.991e+00   5.000e-01
Sylvite           0.00     0.56      0.56    1.078e+01   1.028e+01  -5.000e-01

-----------------------------Solution composition------------------------------

	Elements           Molality       Moles

	Cl                6.734e+00   6.734e+00
	K                 1.225e+00   1.225e+00
	Na                5.509e+00   5.509e+00

----------------------------Description of solution----------------------------

                                       pH  =   6.873      Charge balance
                                       pe  =   4.000      Adjusted to redox equilibrium
      Specific Conductance (µS/cm,   0°C)  = 167701
                          Density (g/cm³)  =   1.23075
                               Volume (L)  =   1.14830
                        Viscosity (mPa s)  =   3.24809
                        Activity of water  =   0.738
                 Ionic strength (mol/kgw)  =   6.734e+00
                       Mass of water (kg)  =   1.000e+00
                 Total alkalinity (eq/kg)  =  -5.181e-15
                         Temperature (°C)  =   0.00
                  Electrical balance (eq)  =  -9.601e-09
 Percent error, 100*(Cat-|An|)/(Cat+|An|)  =  -0.00
                               Iterations  =   1
                         Gamma iterations  =   1
                      Osmotic coefficient  =   1.24953
                         Density of water  =   0.99984
                                  Total H  = 1.110124e+02
                                  Total O  = 5.550622e+01

----------------------------Distribution of species----------------------------

                                                    MacInnes  MacInnes
                                MacInnes       Log       Log       Log    mole V
   Species          Molality    Activity  Molality  Activity     Gamma   cm³/mol

   H+              1.445e-08   1.341e-07    -7.840    -6.873     0.968      0.00
   OH-             1.445e-08   6.347e-09    -7.840    -8.197    -0.357      3.09
   H2O             5.551e+01   7.385e-01     1.744    -0.132     0.000     18.02
Cl            6.734e+00
   Cl-             6.734e+00   3.859e+00     0.828     0.586    -0.242     19.14
K             1.225e+00
   K+              1.225e+00   9.348e-01     0.088    -0.029    -0.117     12.65
Na            5.509e+00
   Na+             5.509e+00   8.227e+00     0.741     0.915     0.174      0.68

------------------------------Saturation indices-------------------------------

  Phase               SI** log IAP   log K(273 K,   1 atm)

  H2O(g)           -2.34     -0.13    2.21  H2O
  Halite            0.00      1.50    1.50  NaCl
  Sylvite           0.00      0.56    0.56  KCl

**For a gas, SI = log10(fugacity). Fugacity = pressure * phi / 1 atm.
  For ideal gases, phi = 1.

Reaction step 21.

Using solution 1.	
Using pure phase assemblage 1.	
Using reaction 1.	

Reaction 1.	

	  5.000e-01 moles of the following reaction have been added:

	                 Relative
	Reactant            moles

	K                   -1.00000
	Na                   1.00000

	                 Relative
	Element             moles
	K                   -1.00000
	Na                   1.00000

-------------------------------Phase assemblage--------------------------------

                                                      Moles in assemblage
Phase               SI  log IAP  log K(T, P)   Initial       Final       Delta

Halite            0.00     1.50      1.50    3.991e+00   4.491e+00   5.000e-01
Sylvite           0.00     0.56      0.56    1.028e+01   9.775e+00  -5.000e-01

-----------------------------Solution composition------------------------------

	Elements           Molality       Moles

	Cl                6.734e+00   6.734e+00
	K                 1.225e+00   1.225e+00
	Na                5.509e+00   5.509e+00

----------------------------Description of solution----------------------------

                                       pH  =   6.873      Charge balance
                                       pe  =   4.000      Adjusted to redox equilibrium
      Specific Conductance (µS/cm,   0°C)  = 167701
                          Density (g/cm³)  =   1.23075
                               Volume (L)  =   1.14830
                        Viscosity (mPa s)  =   3.24809
                        Activity of water  =   0.738
                 Ionic strength (mol/kgw)  =   6.734e+00
                       Mass of water (kg)  =   1.000e+00
                 Total alkalinity (eq/kg)  =  -5.189e-15
                         Temperature (°C)  =   0.00
                  Electrical balance (eq)  =  -9.601e-09
 Percent error, 100*(Cat-|An|)/(Cat+|An|)  =  -0.00
                               Iterations  =   1
                         Gamma iterations  =   1
                      Osmotic coefficient  =   1.24953
                         Density of water  =   0.99984
                                  Total H  = 1.110124e+02
                                  Total O  = 5.550622e+01

----------------------------Distribution of species----------------------------

                                                    MacInnes  MacInnes
                                MacInnes       Log       Log       Log    mole V
   Species          Molality    Activity  Molality  Activity     Gamma   cm³/mol

   H+              1.445e-08   1.341e-07    -7.840    -6.873     0.968      0.00
   OH-             1.445e-08   6.347e-09    -7.840    -8.197    -0.357      3.09
   H2O             5.551e+01   7.385e-01     1.744    -0.132     0.000     18.02
Cl            6.734e+00
   Cl-             6.734e+00   3.859e+00     0.828     0.586    -0.242     19.14
K             1.225e+00
   K+              1.225e+00   9.348e-01     0.088    -0.029    -0.117     12.65
Na            5.509e+00
   Na+             5.509e+00   8.227e+00     0.741     0.915     0.174      0.68

------------------------------Saturation indices-------------------------------

  Phase               SI** log IAP   log K(273 K,   1 atm)

  H2O(g)           -2.34     -0.13    2.21  H2O
  Halite            0.00      1.50    1.50  NaCl
  Sylvite           0.00      0.56    0.56  KCl

**For a gas, SI = log10(fugacity). Fugacity = pressure * phi / 1 atm.
  For ideal gases, phi = 1.

Reaction step 22.

Using solution 1.	
Using pure phase assemblage 1.	
Using reaction 1.	

Reaction 1.	

	  5.000e-01 moles of the following reaction have been added:

	                 Relative
	Reactant            moles

	K                   -1.00000
	Na                   1.00000

	                 Relative
	Element             moles
	K                   -1.00000
	Na                   1.00000

-------------------------------Phase assemblage--------------------------------

                                                      Moles in assemblage
Phase               SI  log IAP  log K(T, P)   Initial       Final       Delta

Halite            0.00     1.50      1.50    4.491e+00   4.991e+00   5.000e-01
Sylvite           0.00     0.56      0.56    9.775e+00   9.275e+00  -5.000e-01

-----------------------------Solution composition------------------------------

	Elements           Molality       Moles

	Cl                6.734e+00   6.734e+00
	K                 1.225e+00   1.225e+00
	Na                5.509e+00   5.509e+00

----------------------------Description of solution----------------------------

                                       pH  =   6.873      Charge balance
                                       pe  =   4.000      Adjusted to redox equilibrium
      Specific Conductance (µS/cm,   0°C)  = 167701
                          Density (g/cm³)  =   1.23075
                               Volume (L)  =   1.14830
                        Viscosity (mPa s)  =   3.24809
                        Activity of water  =   0.738
                 Ionic strength (mol/kgw)  =   6.734e+00
                       Mass of water (kg)  =   1.000e+00
                 Total alkalinity (eq/kg)  =  -5.197e-15
                         Temperature (°C)  =   0.00
                  Electrical balance (eq)  =  -9.601e-09
 Percent error, 100*(Cat-|An|)/(Cat+|An|)  =  -0.00
                               Iterations  =   1
                         Gamma iterations  =   1
                      Osmotic coefficient  =   1.24953
                         Density of water  =   0.99984
                                  Total H  = 1.110124e+02
                                  Total O  = 5.550622e+01

----------------------------Distribution of species----------------------------

                                                    MacInnes  MacInnes
                                MacInnes       Log       Log       Log    mole V
   Species          Molality    Activity  Molality  Activity     Gamma   cm³/mol

   H+              1.445e-08   1.341e-07    -7.840    -6.873     0.968      0.00
   OH-             1.445e-08   6.347e-09    -7.840    -8.197    -0.357      3.09
   H2O             5.551e+01   7.385e-01     1.744    -0.132     0.000     18.02
Cl            6.734e+00
   Cl-             6.734e+00   3.859e+00     0.828     0.586    -0.242     19.14
K             1.225e+00
   K+              1.225e+00   9.348e-01     0.088    -0.029    -0.117     12.65
Na            5.509e+00
   Na+             5.509e+00   8.227e+00     0.741     0.915     0.174      0.68

------------------------------Saturation indices-------------------------------

  Phase               SI** log IAP   log K(273 K,   1 atm)

  H2O(g)           -2.34     -0.13    2.21  H2O
  Halite            0.00      1.50    1.50  NaCl
[...]
                        Viscosity (mPa s)  =   0.33332
                        Activity of water  =   0.700
                 Ionic strength (mol/kgw)  =   9.597e+00
                       Mass of water (kg)  =   1.000e+00
                 Total alkalinity (eq/kg)  =   1.219e-12
                         Temperature (°C)  = 200.00
                           Pressure (atm)  = 15.38
                  Electrical balance (eq)  =  -5.844e-08
 Percent error, 100*(Cat-|An|)/(Cat+|An|)  =  -0.00
                               Iterations  =   6
                         Gamma iterations  =   3
                      Osmotic coefficient  =   1.03316
                         Density of water  =   0.86467
                                  Total H  = 1.110124e+02
                                  Total O  = 5.550622e+01

----------------------------Distribution of species----------------------------

                                                    MacInnes  MacInnes
                                MacInnes       Log       Log       Log    mole V
   Species          Molality    Activity  Molality  Activity     Gamma   cm³/mol

   OH-             2.404e-06   3.189e-07    -5.619    -6.496    -0.877      7.65
   H+              2.404e-06   1.057e-05    -5.619    -4.976     0.643      0.00
   H2O             5.551e+01   6.996e-01     1.744    -0.155     0.000     20.84
Cl            9.597e+00
   Cl-             9.597e+00   3.800e+00     0.982     0.580    -0.402     18.43
K             3.000e+00
   K+              3.000e+00   1.321e+00     0.477     0.121    -0.356     15.34
Na            6.597e+00
   Na+             6.597e+00   4.110e+00     0.819     0.614    -0.205      3.17

------------------------------Saturation indices-------------------------------

  Phase               SI** log IAP   log K(473 K,  15 atm)

  H2O(g)            1.00     -0.16   -1.16  H2O
  Halite            0.00      1.19    1.19  NaCl
  Sylvite          -0.55      0.70    1.25  KCl

**For a gas, SI = log10(fugacity). Fugacity = pressure * phi / 1 atm.
  For ideal gases, phi = 1.

Reaction step 38.

Using solution 1.	
Using pure phase assemblage 1.	
Using temperature 2.	
Using reaction 1.	

Reaction 1.	

	  5.000e-01 moles of the following reaction have been added:

	                 Relative
	Reactant            moles

	K                   -1.00000
	Na                   1.00000

	                 Relative
	Element             moles
	K                   -1.00000
	Na                   1.00000

-------------------------------Phase assemblage--------------------------------

                                                      Moles in assemblage
Phase               SI  log IAP  log K(T, P)   Initial       Final       Delta

Halite            0.00     1.19      1.19    1.140e+01   1.171e+01   3.099e-01
Sylvite          -0.64     0.61      1.25    0.000e+00           0   0.000e+00

-----------------------------Solution composition------------------------------

	Elements           Molality       Moles

	Cl                9.287e+00   9.287e+00
	K                 2.500e+00   2.500e+00
	Na                6.787e+00   6.787e+00

----------------------------Description of solution----------------------------

                                       pH  =   4.987      Charge balance
                                       pe  =   4.000      Adjusted to redox equilibrium
      Specific Conductance (µS/cm, 200°C)  = 1252731
                          Density (g/cm³)  =   1.14334
                               Volume (L)  =   1.38455
                        Viscosity (mPa s)  =   0.32940
                        Activity of water  =   0.707
                 Ionic strength (mol/kgw)  =   9.287e+00
                       Mass of water (kg)  =   1.000e+00
                 Total alkalinity (eq/kg)  =   1.244e-12
                         Temperature (°C)  = 200.00
                           Pressure (atm)  = 15.38
                  Electrical balance (eq)  =  -5.810e-08
 Percent error, 100*(Cat-|An|)/(Cat+|An|)  =  -0.00
                               Iterations  =   7
                         Gamma iterations  =   3
                      Osmotic coefficient  =   1.03630
                         Density of water  =   0.86467
                                  Total H  = 1.110124e+02
                                  Total O  = 5.550622e+01

----------------------------Distribution of species----------------------------

                                                    MacInnes  MacInnes
                                MacInnes       Log       Log       Log    mole V
   Species          Molality    Activity  Molality  Activity     Gamma   cm³/mol

   OH-             2.446e-06   3.310e-07    -5.612    -6.480    -0.869      6.93
   H+              2.446e-06   1.030e-05    -5.612    -4.987     0.624      0.00
   H2O             5.551e+01   7.070e-01     1.744    -0.151     0.000     20.84
Cl            9.287e+00
   Cl-             9.287e+00   3.683e+00     0.968     0.566    -0.402     18.12
K             2.500e+00
   K+              2.500e+00   1.103e+00     0.398     0.042    -0.355     15.28
Na            6.787e+00
   Na+             6.787e+00   4.242e+00     0.832     0.628    -0.204      3.18

------------------------------Saturation indices-------------------------------

  Phase               SI** log IAP   log K(473 K,  15 atm)

  H2O(g)            1.01     -0.15   -1.16  H2O
  Halite            0.00      1.19    1.19  NaCl
  Sylvite          -0.64      0.61    1.25  KCl

**For a gas, SI = log10(fugacity). Fugacity = pressure * phi / 1 atm.
  For ideal gases, phi = 1.

Reaction step 39.

Using solution 1.	
Using pure phase assemblage 1.	
Using temperature 2.	
Using reaction 1.	

Reaction 1.	

	  5.000e-01 moles of the following reaction have been added:

	                 Relative
	Reactant            moles

	K                   -1.00000
	Na                   1.00000

	                 Relative
	Element             moles
	K                   -1.00000
	Na                   1.00000

-------------------------------Phase assemblage--------------------------------

                                                      Moles in assemblage
Phase               SI  log IAP  log K(T, P)   Initial       Final       Delta

Halite            0.00     1.19      1.19    1.171e+01   1.201e+01   3.004e-01
Sylvite          -0.75     0.50      1.25    0.000e+00           0   0.000e+00

-----------------------------Solution composition------------------------------

	Elements           Molality       Moles

	Cl                8.986e+00   8.986e+00
	K                 2.000e+00   2.000e+00
	Na                6.986e+00   6.986e+00

----------------------------Description of solution----------------------------

                                       pH  =   4.998      Charge balance
                                       pe  =   4.000      Adjusted to redox equilibrium
      Specific Conductance (µS/cm, 200°C)  = 1229272
                          Density (g/cm³)  =   1.13735
                               Volume (L)  =   1.36932
                        Viscosity (mPa s)  =   0.32571
                        Activity of water  =   0.714
                 Ionic strength (mol/kgw)  =   8.986e+00
                       Mass of water (kg)  =   1.000e+00
                 Total alkalinity (eq/kg)  =   1.265e-12
                         Temperature (°C)  = 200.00
                           Pressure (atm)  = 15.38
                  Electrical balance (eq)  =  -5.776e-08
 Percent error, 100*(Cat-|An|)/(Cat+|An|)  =  -0.00
                               Iterations  =   7
                         Gamma iterations  =   3
                      Osmotic coefficient  =   1.03924
                         Density of water  =   0.86467
                                  Total H  = 1.110124e+02
                                  Total O  = 5.550622e+01

----------------------------Distribution of species----------------------------

                                                    MacInnes  MacInnes
                                MacInnes       Log       Log       Log    mole V
   Species          Molality    Activity  Molality  Activity     Gamma   cm³/mol

   OH-             2.484e-06   3.430e-07    -5.605    -6.465    -0.860      6.22
   H+              2.484e-06   1.004e-05    -5.605    -4.998     0.607      0.00
   H2O             5.551e+01   7.143e-01     1.744    -0.146     0.000     20.84
Cl            8.986e+00
   Cl-             8.986e+00   3.567e+00     0.954     0.552    -0.401     17.82
K             2.000e+00
   K+              2.000e+00   8.828e-01     0.301    -0.054    -0.355     15.23
Na            6.986e+00
   Na+             6.986e+00   4.380e+00     0.844     0.641    -0.203      3.18

------------------------------Saturation indices-------------------------------

  Phase               SI** log IAP   log K(473 K,  15 atm)

  H2O(g)            1.01     -0.15   -1.16  H2O
  Halite            0.00      1.19    1.19  NaCl
  Sylvite          -0.75      0.50    1.25  KCl

**For a gas, SI = log10(fugacity). Fugacity = pressure * phi / 1 atm.
  For ideal gases, phi = 1.

Reaction step 40.

Using solution 1.	
Using pure phase assemblage 1.	
Using temperature 2.	
Using reaction 1.	

Reaction 1.	

	  5.000e-01 moles of the following reaction have been added:

	                 Relative
	Reactant            moles

	K                   -1.00000
	Na                   1.00000

	                 Relative
	Element             moles
	K                   -1.00000
	Na                   1.00000

-------------------------------Phase assemblage--------------------------------

                                                      Moles in assemblage
Phase               SI  log IAP  log K(T, P)   Initial       Final       Delta

Halite            0.00     1.19      1.19    1.201e+01   1.230e+01   2.913e-01
Sylvite          -0.89     0.36      1.25    0.000e+00           0   0.000e+00

-----------------------------Solution composition------------------------------

	Elements           Molality       Moles

	Cl                8.695e+00   8.695e+00
	K                 1.500e+00   1.500e+00
	Na                7.195e+00   7.195e+00

----------------------------Description of solution----------------------------

                                       pH  =   5.009      Charge balance
                                       pe  =   4.000      Adjusted to redox equilibrium
      Specific Conductance (µS/cm, 200°C)  = 1203913
                          Density (g/cm³)  =   1.13124
                               Volume (L)  =   1.35455
                        Viscosity (mPa s)  =   0.32224
                        Activity of water  =   0.721
                 Ionic strength (mol/kgw)  =   8.695e+00
                       Mass of water (kg)  =   1.000e+00
                 Total alkalinity (eq/kg)  =   1.288e-12
                         Temperature (°C)  = 200.00
                           Pressure (atm)  = 15.38
                  Electrical balance (eq)  =  -5.744e-08
 Percent error, 100*(Cat-|An|)/(Cat+|An|)  =  -0.00
                               Iterations  =   7
                         Gamma iterations  =   3
                      Osmotic coefficient  =   1.04207
                         Density of water  =   0.86467
                                  Total H  = 1.110124e+02
                                  Total O  = 5.550622e+01

----------------------------Distribution of species----------------------------

                                                    MacInnes  MacInnes
                                MacInnes       Log       Log       Log    mole V
   Species          Molality    Activity  Molality  Activity     Gamma   cm³/mol

   OH-             2.518e-06   3.550e-07    -5.599    -6.450    -0.851      5.53
   H+              2.518e-06   9.805e-06    -5.599    -5.009     0.590      0.00
   H2O             5.551e+01   7.215e-01     1.744    -0.142     0.000     20.84
Cl            8.695e+00
   Cl-             8.695e+00   3.453e+00     0.939     0.538    -0.401     17.52
K             1.500e+00
   K+              1.500e+00   6.622e-01     0.176    -0.179    -0.355     15.18
Na            7.195e+00
   Na+             7.195e+00   4.525e+00     0.857     0.656    -0.201      3.19

------------------------------Saturation indices-------------------------------

  Phase               SI** log IAP   log K(473 K,  15 atm)

  H2O(g)            1.01     -0.14   -1.16  H2O
  Halite            0.00      1.19    1.19  NaCl
  Sylvite          -0.89      0.36    1.25  KCl

**For a gas, SI = log10(fugacity). Fugacity = pressure * phi / 1 atm.
  For ideal gases, phi = 1.

Reaction step 41.

Using solution 1.	
Using pure phase assemblage 1.	
Using temperature 2.	
Using reaction 1.	

Reaction 1.	

	  5.000e-01 moles of the following reaction have been added:

	                 Relative
	Reactant            moles

	K                   -1.00000
	Na                   1.00000

	                 Relative
	Element             moles
	K                   -1.00000
	Na                   1.00000

-------------------------------Phase assemblage--------------------------------

                                                      Moles in assemblage
Phase               SI  log IAP  log K(T, P)   Initial       Final       Delta

Halite            0.00     1.19      1.19    1.230e+01   1.259e+01   2.824e-01
Sylvite          -1.08     0.17      1.25    0.000e+00           0   0.000e+00

-----------------------------Solution composition------------------------------

	Elements           Molality       Moles

	Cl                8.413e+00   8.413e+00
	K                 9.999e-01   9.999e-01
	Na                7.413e+00   7.413e+00

----------------------------Description of solution----------------------------

                                       pH  =   5.019      Charge balance
                                       pe  =   4.000      Adjusted to redox equilibrium
      Specific Conductance (µS/cm, 200°C)  = 1176668
                          Density (g/cm³)  =   1.12502
                               Volume (L)  =   1.34021
                        Viscosity (mPa s)  =   0.31898
                        Activity of water  =   0.729
                 Ionic strength (mol/kgw)  =   8.413e+00
                       Mass of water (kg)  =   1.000e+00
                 Total alkalinity (eq/kg)  =   1.308e-12
                         Temperature (°C)  = 200.00
                           Pressure (atm)  = 15.38
                  Electrical balance (eq)  =  -5.712e-08
 Percent error, 100*(Cat-|An|)/(Cat+|An|)  =  -0.00
                               Iterations  =   7
                         Gamma iterations  =   3
                      Osmotic coefficient  =   1.04488
                         Density of water  =   0.86467
                                  Total H  = 1.110124e+02
                                  Total O  = 5.550622e+01

----------------------------Distribution of species----------------------------

                                                    MacInnes  MacInnes
                                MacInnes       Log       Log       Log    mole V
   Species          Molality    Activity  Molality  Activity     Gamma   cm³/mol

   OH-             2.548e-06   3.670e-07    -5.594    -6.435    -0.842      4.86
   H+              2.548e-06   9.578e-06    -5.594    -5.019     0.575      0.00
   H2O             5.551e+01   7.285e-01     1.744    -0.138     0.000     20.84
Cl            8.413e+00
   Cl-             8.413e+00   3.341e+00     0.925     0.524    -0.401     17.22
K             9.999e-01
   K+              9.999e-01   4.413e-01    -0.000    -0.355    -0.355     15.13
Na            7.413e+00
   Na+             7.413e+00   4.677e+00     0.870     0.670    -0.200      3.19

------------------------------Saturation indices-------------------------------

  Phase               SI** log IAP   log K(473 K,  15 atm)

  H2O(g)            1.02     -0.14   -1.16  H2O
  Halite            0.00      1.19    1.19  NaCl
  Sylvite          -1.08      0.17    1.25  KCl

**For a gas, SI = log10(fugacity). Fugacity = pressure * phi / 1 atm.
  For ideal gases, phi = 1.

Reaction step 42.

Using solution 1.	
Using pure phase assemblage 1.	
Using temperature 2.	
Using reaction 1.	

Reaction 1.	

	  9.999e-01 moles of the following reaction have been added:

	                 Relative
	Reactant            moles

	K                   -1.00000
	Na                   1.00000

	                 Relative
	Element             moles
	K                   -1.00000
	Na                   1.00000

-------------------------------Phase assemblage--------------------------------

                                                      Moles in assemblage
Phase               SI  log IAP  log K(T, P)   Initial       Final       Delta

Halite            0.00     1.19      1.19    1.259e+01   1.313e+01   5.393e-01
Sylvite          -6.10    -4.85      1.25    0.000e+00           0   0.000e+00

-----------------------------Solution composition------------------------------

	Elements           Molality       Moles

	Cl                7.873e+00   7.873e+00
	K                 1.034e-05   1.034e-05
	Na                7.873e+00   7.873e+00

----------------------------Description of solution----------------------------

                                       pH  =   5.038      Charge balance
                                       pe  =   4.000      Adjusted to redox equilibrium
      Specific Conductance (µS/cm, 200°C)  = 1116569
                          Density (g/cm³)  =   1.11227
                               Volume (L)  =   1.31276
                        Viscosity (mPa s)  =   0.31306
                        Activity of water  =   0.742
                 Ionic strength (mol/kgw)  =   7.873e+00
                       Mass of water (kg)  =   1.000e+00
                 Total alkalinity (eq/kg)  =   1.377e-12
                         Temperature (°C)  = 200.00
                           Pressure (atm)  = 15.38
                  Electrical balance (eq)  =  -5.541e-08
 Percent error, 100*(Cat-|An|)/(Cat+|An|)  =  -0.00
                               Iterations  =   6
                         Gamma iterations  =   3
                      Osmotic coefficient  =   1.05082
                         Density of water  =   0.86467
                                  Total H  = 1.110124e+02
                                  Total O  = 5.550622e+01

----------------------------Distribution of species----------------------------

                                                    MacInnes  MacInnes
                                MacInnes       Log       Log       Log    mole V
   Species          Molality    Activity  Molality  Activity     Gamma   cm³/mol

   OH-             2.594e-06   3.914e-07    -5.586    -6.407    -0.821      3.55
   H+              2.594e-06   9.155e-06    -5.586    -5.038     0.548      0.00
   H2O             5.551e+01   7.422e-01     1.744    -0.129     0.000     20.84
Cl            7.873e+00
   Cl-             7.873e+00   3.125e+00     0.896     0.495    -0.401     16.64
K             1.034e-05
   K+              1.034e-05   4.552e-06    -4.986    -5.342    -0.356     15.03
Na            7.873e+00
   Na+             7.873e+00   5.001e+00     0.896     0.699    -0.197      3.21

------------------------------Saturation indices-------------------------------

  Phase               SI** log IAP   log K(473 K,  15 atm)

  H2O(g)            1.03     -0.13   -1.16  H2O
  Halite            0.00      1.19    1.19  NaCl
  Sylvite          -6.10     -4.85    1.25  KCl

**For a gas, SI = log10(fugacity). Fugacity = pressure * phi / 1 atm.
  For ideal gases, phi = 1.

------------------
End of simulation.
------------------

------------------------------------
Reading input data for simulation 6.
------------------------------------

