WARNING: Database file from DATABASE keyword is used; command line argument ignored.
   Input file: NaMgCl
  Output file: NaMgCl.out
Database file: ../database/pitzer.dat

------------------
Reading data base.
------------------

	SOLUTION_MASTER_SPECIES
	SOLUTION_SPECIES
	PHASES
	PITZER
	GAS_BINARY_PARAMETERS
	EXCHANGE_MASTER_SPECIES
	EXCHANGE_SPECIES
	SURFACE_MASTER_SPECIES
	SURFACE_SPECIES
	MEAN_GAMMAS
	END
------------------------------------
Reading input data for simulation 1.
------------------------------------

	DATABASE ../database/pitzer.dat
	SELECTED_OUTPUT 101
	    file                 NaMgCl_101.sel
	USER_PUNCH 101
	    headings Mu SC
	    start
	10 PUNCH STR_F$(MU, 20, 12)
	20 PUNCH STR_F$(SC, 20, 10)
	    end
	SOLUTION 1
	 pH 7 charge
	 temp 0
	EQUILIBRIUM_PHASES 1
	 Halite
	 Bischofite 0 0
	REACTION 1
	 MgCl2 1
	 0 9*1
	INCREMENTAL_REACTIONS true
	USER_GRAPH 
	-headings x 0.oC SI("Bischofite")
	-chart_title "Halite saturation curves"
	-axis_titles "NaCl / (mol/kgw)" "MgCl2 / (mol/kgw)" "Saturation Index"
	-axis_scale x_axis 0 8
	-axis_scale y_axis 0 16
	-axis_scale sy_axis -7 1
	10 graph_x tot("Na")
	20 graph_y tot("Mg")
	30 if sim_no = 1 and step_no > 0 then graph_sy SI("Bischofite")
	-end
	END
-------------------------------------------
Beginning of initial solution calculations.
-------------------------------------------

Initial solution 1.	

-----------------------------Solution composition------------------------------

	Elements           Molality       Moles

	Pure water     

----------------------------Description of solution----------------------------

                                       pH  =   7.469      Charge balance
                                       pe  =   4.000    
      Specific Conductance (µS/cm,   0°C)  = 0
                          Density (g/cm³)  =   0.99984
                               Volume (L)  =   1.00016
                        Viscosity (mPa s)  =   1.79177
                        Activity of water  =   1.000
                 Ionic strength (mol/kgw)  =   3.395e-08
                       Mass of water (kg)  =   1.000e+00
                 Total alkalinity (eq/kg)  =  -6.617e-23
                         Temperature (°C)  =   0.00
                  Electrical balance (eq)  =   6.617e-23
 Percent error, 100*(Cat-|An|)/(Cat+|An|)  =   0.00
                               Iterations  =   6
                         Gamma iterations  =   2
                      Osmotic coefficient  =   0.99993
                         Density of water  =   0.99984
                                  Total H  = 1.110124e+02
                                  Total O  = 5.550622e+01

----------------------------Distribution of species----------------------------

                                                    MacInnes  MacInnes
                                MacInnes       Log       Log       Log    mole V
   Species          Molality    Activity  Molality  Activity     Gamma   cm³/mol

   H+              3.395e-08   3.394e-08    -7.469    -7.469    -0.000      0.00
   OH-             3.395e-08   3.394e-08    -7.469    -7.469    -0.000     -6.19
   H2O             5.551e+01   1.000e+00     1.744    -0.000     0.000     18.02

------------------------------Saturation indices-------------------------------

  Phase               SI** log IAP   log K(273 K,   1 atm)

  H2O(g)           -2.21     -0.00    2.21  H2O

**For a gas, SI = log10(fugacity). Fugacity = pressure * phi / 1 atm.
  For ideal gases, phi = 1.

-----------------------------------------
Beginning of batch-reaction calculations.
-----------------------------------------

Reaction step 1.

WARNING: Element Mg is contained in Bischofite (which has 0.0 mass),	
but is not in solution or other phases.
Using solution 1.	
Using pure phase assemblage 1.	
Using reaction 1.	

Reaction 1.	

	  0.000e+00 moles of the following reaction have been added:

	                 Relative
	Reactant            moles

	MgCl2                1.00000

	                 Relative
	Element             moles
	Cl                   2.00000
	Mg                   1.00000

-------------------------------Phase assemblage--------------------------------

                                                      Moles in assemblage
Phase               SI  log IAP  log K(T, P)   Initial       Final       Delta

Bischofite           Element not present.    0.000e+00           0   0.000e+00
Halite            0.00     1.50      1.50    1.000e+01   3.868e+00  -6.132e+00

-----------------------------Solution composition------------------------------

	Elements           Molality       Moles

	Cl                6.132e+00   6.132e+00
	Na                6.132e+00   6.132e+00

----------------------------Description of solution----------------------------

                                       pH  =   6.831      Charge balance
                                       pe  =   4.000      Adjusted to redox equilibrium
      Specific Conductance (µS/cm,   0°C)  = 140065
                          Density (g/cm³)  =   1.21337
                               Volume (L)  =   1.11951
                        Viscosity (mPa s)  =   3.47880
                        Activity of water  =   0.756
                 Ionic strength (mol/kgw)  =   6.132e+00
                       Mass of water (kg)  =   1.000e+00
                 Total alkalinity (eq/kg)  =  -3.414e-16
                         Temperature (°C)  =   0.00
                  Electrical balance (eq)  =   1.265e-11
 Percent error, 100*(Cat-|An|)/(Cat+|An|)  =   0.00
                               Iterations  =  15
                         Gamma iterations  =   5
                      Osmotic coefficient  =   1.26653
                         Density of water  =   0.99984
                                  Total H  = 1.110124e+02
                                  Total O  = 5.550622e+01

----------------------------Distribution of species----------------------------

                                                    MacInnes  MacInnes
                                MacInnes       Log       Log       Log    mole V
   Species          Molality    Activity  Molality  Activity     Gamma   cm³/mol

   H+              1.641e-08   1.475e-07    -7.785    -6.831     0.953      0.00
   OH-             1.641e-08   5.907e-09    -7.785    -8.229    -0.444      2.35
   H2O             5.551e+01   7.559e-01     1.744    -0.122     0.000     18.02
Cl            6.132e+00
   Cl-             6.132e+00   3.429e+00     0.788     0.535    -0.252     18.98
Na            6.132e+00
   Na+             6.132e+00   9.259e+00     0.788     0.967     0.179      0.48

------------------------------Saturation indices-------------------------------

  Phase               SI** log IAP   log K(273 K,   1 atm)

  H2O(g)           -2.33     -0.12    2.21  H2O
  Halite            0.00      1.50    1.50  NaCl

**For a gas, SI = log10(fugacity). Fugacity = pressure * phi / 1 atm.
  For ideal gases, phi = 1.

Reaction step 2.

Using solution 1.	
Using pure phase assemblage 1.	
Using reaction 1.	

Reaction 1.	

	  1.000e+00 moles of the following reaction have been added:

	                 Relative
	Reactant            moles

	MgCl2                1.00000

	                 Relative
	Element             moles
	Cl                   2.00000
	Mg                   1.00000

-------------------------------Phase assemblage--------------------------------

                                                      Moles in assemblage
Phase               SI  log IAP  log K(T, P)   Initial       Final       Delta

Bischofite       -3.34     1.57      4.91    0.000e+00           0   0.000e+00
Halite            0.00     1.50      1.50    3.868e+00   5.789e+00   1.921e+00

-----------------------------Solution composition------------------------------

	Elements           Molality       Moles

	Cl                6.211e+00   6.211e+00
	Mg                1.000e+00   1.000e+00
	Na                4.211e+00   4.211e+00

----------------------------Description of solution----------------------------

                                       pH  =   5.317      Charge balance
                                       pe  =   4.000      Adjusted to redox equilibrium
      Specific Conductance (µS/cm,   0°C)  = 130307
                          Density (g/cm³)  =   1.21277
                               Volume (L)  =   1.10600
                        Viscosity (mPa s)  =   3.68614
                        Activity of water  =   0.737
                 Ionic strength (mol/kgw)  =   7.211e+00
                       Mass of water (kg)  =   1.000e+00
                 Total alkalinity (eq/kg)  =  -3.547e-16
                         Temperature (°C)  =   0.00
                  Electrical balance (eq)  =  -2.831e-08
 Percent error, 100*(Cat-|An|)/(Cat+|An|)  =  -0.00
                               Iterations  =  17
                         Gamma iterations  =   6
                      Osmotic coefficient  =   1.48494
                         Density of water  =   0.99984
                                  Total H  = 1.110124e+02
                                  Total O  = 5.550622e+01

----------------------------Distribution of species----------------------------

                                                    MacInnes  MacInnes
                                MacInnes       Log       Log       Log    mole V
   Species          Molality    Activity  Molality  Activity     Gamma   cm³/mol

   H+              3.902e-07   4.821e-06    -6.409    -5.317     1.092      0.00
   OH-             1.246e-09   1.761e-10    -8.904    -9.754    -0.850      3.68
   H2O             5.551e+01   7.367e-01     1.744    -0.133     0.000     18.02
Cl            6.211e+00
   Cl-             6.211e+00   3.638e+00     0.793     0.561    -0.232     19.26
Mg            1.000e+00
   Mg+2            1.000e+00   1.751e+01    -0.000     1.243     1.243    -17.34
   MgOH+           3.889e-07   3.838e-07    -6.410    -6.416    -0.006     (0)  
Na            4.211e+00
   Na+             4.211e+00   8.727e+00     0.624     0.941     0.316      0.84

------------------------------Saturation indices-------------------------------

  Phase               SI** log IAP   log K(273 K,   1 atm)

  Bischofite       -3.34      1.57    4.91  MgCl2:6H2O
  Brucite          -7.06    -18.27  -11.21  Mg(OH)2
  H2O(g)           -2.34     -0.13    2.21  H2O
  Halite            0.00      1.50    1.50  NaCl
  MgCl2_2H2O      -14.73      2.10   16.83  MgCl2:2H2O
  MgCl2_4H2O       -5.65      1.83    7.48  MgCl2:4H2O

**For a gas, SI = log10(fugacity). Fugacity = pressure * phi / 1 atm.
  For ideal gases, phi = 1.

Reaction step 3.

Using solution 1.	
Using pure phase assemblage 1.	
Using reaction 1.	

Reaction 1.	

	  1.000e+00 moles of the following reaction have been added:

	                 Relative
	Reactant            moles

	MgCl2                1.00000

	                 Relative
	Element             moles
	Cl                   2.00000
	Mg                   1.00000

-------------------------------Phase assemblage--------------------------------

                                                      Moles in assemblage
Phase               SI  log IAP  log K(T, P)   Initial       Final       Delta

Bischofite       -2.66     2.25      4.91    0.000e+00           0   0.000e+00
Halite            0.00     1.50      1.50    5.789e+00   7.498e+00   1.709e+00

-----------------------------Solution composition------------------------------

	Elements           Molality       Moles

	Cl                6.502e+00   6.502e+00
	Mg                2.000e+00   2.000e+00
	Na                2.502e+00   2.502e+00

----------------------------Description of solution----------------------------

                                       pH  =   4.942      Charge balance
                                       pe  =   4.000      Adjusted to redox equilibrium
      Specific Conductance (µS/cm,   0°C)  = 117509
                          Density (g/cm³)  =   1.21877
                               Volume (L)  =   1.09672
                        Viscosity (mPa s)  =   4.33738
                        Activity of water  =   0.700
                 Ionic strength (mol/kgw)  =   8.502e+00
                       Mass of water (kg)  =   1.000e+00
                 Total alkalinity (eq/kg)  =   5.160e-15
                         Temperature (°C)  =   0.00
                  Electrical balance (eq)  =  -2.832e-08
 Percent error, 100*(Cat-|An|)/(Cat+|An|)  =  -0.00
                               Iterations  =  30
                         Gamma iterations  =   8
                      Osmotic coefficient  =   1.79667
                         Density of water  =   0.99984
                                  Total H  = 1.110124e+02
                                  Total O  = 5.550622e+01

----------------------------Distribution of species----------------------------

                                                    MacInnes  MacInnes
                                MacInnes       Log       Log       Log    mole V
   Species          Molality    Activity  Molality  Activity     Gamma   cm³/mol

   H+              5.814e-07   1.142e-05    -6.236    -4.942     1.293      0.00
   OH-             1.259e-09   7.066e-11    -8.900   -10.151    -1.251      5.26
   H2O             5.551e+01   7.004e-01     1.744    -0.155     0.000     18.02
Cl            6.502e+00
   Cl-             6.502e+00   4.077e+00     0.813     0.610    -0.203     19.58
Mg            2.000e+00
   Mg+2            2.000e+00   9.061e+01     0.301     1.957     1.656    -16.94
   MgOH+           5.801e-07   7.969e-07    -6.236    -6.099     0.138     (0)  
Na            2.502e+00
   Na+             2.502e+00   7.786e+00     0.398     0.891     0.493      1.24

------------------------------Saturation indices-------------------------------

  Phase               SI** log IAP   log K(273 K,   1 atm)

  Bischofite       -2.66      2.25    4.91  MgCl2:6H2O
  Brucite          -7.14    -18.34  -11.21  Mg(OH)2
  H2O(g)           -2.36     -0.15    2.21  H2O
  Halite            0.00      1.50    1.50  NaCl
  MgCl2_2H2O      -13.96      2.87   16.83  MgCl2:2H2O
  MgCl2_4H2O       -4.92      2.56    7.48  MgCl2:4H2O

**For a gas, SI = log10(fugacity). Fugacity = pressure * phi / 1 atm.
  For ideal gases, phi = 1.

Reaction step 4.

Using solution 1.	
Using pure phase assemblage 1.	
Using reaction 1.	

Reaction 1.	

	  1.000e+00 moles of the following reaction have been added:

	                 Relative
	Reactant            moles

	MgCl2                1.00000

	                 Relative
	Element             moles
	Cl                   2.00000
	Mg                   1.00000

-------------------------------Phase assemblage--------------------------------

                                                      Moles in assemblage
Phase               SI  log IAP  log K(T, P)   Initial       Final       Delta

Bischofite       -1.96     2.95      4.91    0.000e+00           0   0.000e+00
Halite            0.00     1.50      1.50    7.498e+00   8.796e+00   1.298e+00

-----------------------------Solution composition------------------------------

	Elements           Molality       Moles

	Cl                7.204e+00   7.204e+00
	Mg                3.000e+00   3.000e+00
	Na                1.204e+00   1.204e+00

----------------------------Description of solution----------------------------

                                       pH  =   4.517      Charge balance
                                       pe  =   4.000      Adjusted to redox equilibrium
      Specific Conductance (µS/cm,   0°C)  = 98475
                          Density (g/cm³)  =   1.23610
                               Volume (L)  =   1.09701
                        Viscosity (mPa s)  =   6.00557
                        Activity of water  =   0.633
                 Ionic strength (mol/kgw)  =   1.020e+01
                       Mass of water (kg)  =   1.000e+00
                 Total alkalinity (eq/kg)  =   6.239e-15
                         Temperature (°C)  =   0.00
                  Electrical balance (eq)  =  -2.833e-08
 Percent error, 100*(Cat-|An|)/(Cat+|An|)  =  -0.00
                               Iterations  =  26
                         Gamma iterations  =   8
                      Osmotic coefficient  =   2.22278
                         Density of water  =   0.99984
                                  Total H  = 1.110124e+02
                                  Total O  = 5.550622e+01

----------------------------Distribution of species----------------------------

                                                    MacInnes  MacInnes
                                MacInnes       Log       Log       Log    mole V
   Species          Molality    Activity  Molality  Activity     Gamma   cm³/mol

   H+              7.807e-07   3.039e-05    -6.108    -4.517     1.590      0.00
   OH-             1.053e-09   2.401e-11    -8.978   -10.620    -1.642      7.33
   H2O             5.551e+01   6.333e-01     1.744    -0.198     0.000     18.02
Cl            7.204e+00
   Cl-             7.204e+00   5.036e+00     0.858     0.702    -0.155     19.99
Mg            3.000e+00
   Mg+2            3.000e+00   5.442e+02     0.477     2.736     2.259    -16.41
   MgOH+           7.797e-07   1.627e-06    -6.108    -5.789     0.319     (0)  
Na            1.204e+00
   Na+             1.204e+00   6.304e+00     0.081     0.800     0.719      1.72

------------------------------Saturation indices-------------------------------

  Phase               SI** log IAP   log K(273 K,   1 atm)

  Bischofite       -1.96      2.95    4.91  MgCl2:6H2O
  Brucite          -7.30    -18.50  -11.21  Mg(OH)2
  H2O(g)           -2.41     -0.20    2.21  H2O
  Halite            0.00      1.50    1.50  NaCl
  MgCl2_2H2O      -13.09      3.74   16.83  MgCl2:2H2O
  MgCl2_4H2O       -4.14      3.35    7.48  MgCl2:4H2O

**For a gas, SI = log10(fugacity). Fugacity = pressure * phi / 1 atm.
  For ideal gases, phi = 1.

Reaction step 5.

Using solution 1.	
Using pure phase assemblage 1.	
Using reaction 1.	

Reaction 1.	

	  1.000e+00 moles of the following reaction have been added:

	                 Relative
	Reactant            moles

	MgCl2                1.00000

	                 Relative
	Element             moles
	Cl                   2.00000
	Mg                   1.00000

-------------------------------Phase assemblage--------------------------------

                                                      Moles in assemblage
Phase               SI  log IAP  log K(T, P)   Initial       Final       Delta

Bischofite       -1.17     3.73      4.91    0.000e+00           0   0.000e+00
Halite            0.00     1.50      1.50    8.796e+00   9.544e+00   7.487e-01

-----------------------------Solution composition------------------------------

	Elements           Molality       Moles

	Cl                8.456e+00   8.456e+00
	Mg                4.000e+00   4.000e+00
	Na                4.555e-01   4.555e-01

----------------------------Description of solution----------------------------

                                       pH  =   3.978      Charge balance
                                       pe  =   4.000      Adjusted to redox equilibrium
      Specific Conductance (µS/cm,   0°C)  = 76264
                          Density (g/cm³)  =   1.26609
                               Volume (L)  =   1.11167
                        Viscosity (mPa s)  =   9.71066
                        Activity of water  =   0.526
                 Ionic strength (mol/kgw)  =   1.246e+01
                       Mass of water (kg)  =   1.000e+00
                 Total alkalinity (eq/kg)  =   7.926e-15
                         Temperature (°C)  =   0.00
                  Electrical balance (eq)  =  -2.799e-08
 Percent error, 100*(Cat-|An|)/(Cat+|An|)  =  -0.00
                               Iterations  =  14
                         Gamma iterations  =   5
                      Osmotic coefficient  =   2.75837
                         Density of water  =   0.99984
                                  Total H  = 1.110124e+02
                                  Total O  = 5.550622e+01

----------------------------Distribution of species----------------------------

                                                    MacInnes  MacInnes
                                MacInnes       Log       Log       Log    mole V
   Species          Molality    Activity  Molality  Activity     Gamma   cm³/mol

   H+              1.056e-06   1.052e-04    -5.976    -3.978     1.998      0.00
   OH-             5.959e-10   5.765e-12    -9.225   -11.239    -2.014     10.03
   H2O             5.551e+01   5.265e-01     1.744    -0.279     0.000     18.02
Cl            8.456e+00
   Cl-             8.456e+00   7.015e+00     0.927     0.846    -0.081     20.50
Mg            4.000e+00
   Mg+2            4.000e+00   1.000e+03     0.602     3.713     3.111    -15.72
   MgOH+           1.055e-06   3.705e-06    -5.977    -5.431     0.545     (0)  
Na            4.555e-01
   Na+             4.555e-01   4.526e+00    -0.341     0.656     0.997      2.31

------------------------------Saturation indices-------------------------------

  Phase               SI** log IAP   log K(273 K,   1 atm)

  Bischofite       -1.17      3.73    4.91  MgCl2:6H2O
  Brucite          -7.56    -18.77  -11.21  Mg(OH)2
  H2O(g)           -2.49     -0.28    2.21  H2O
  Halite            0.00      1.50    1.50  NaCl
  MgCl2_2H2O      -11.98      4.85   16.83  MgCl2:2H2O
  MgCl2_4H2O       -3.19      4.29    7.48  MgCl2:4H2O

**For a gas, SI = log10(fugacity). Fugacity = pressure * phi / 1 atm.
  For ideal gases, phi = 1.

Reaction step 6.

Using solution 1.	
Using pure phase assemblage 1.	
Using reaction 1.	

Reaction 1.	

	  1.000e+00 moles of the following reaction have been added:

	                 Relative
	Reactant            moles

	MgCl2                1.00000

	                 Relative
	Element             moles
	Cl                   2.00000
	Mg                   1.00000

-------------------------------Phase assemblage--------------------------------

                                                      Moles in assemblage
Phase               SI  log IAP  log K(T, P)   Initial       Final       Delta

Bischofite       -0.39     4.52      4.91    0.000e+00           0   0.000e+00
Halite            0.00     1.50      1.50    9.544e+00   9.857e+00   3.121e-01

-----------------------------Solution composition------------------------------

	Elements           Molality       Moles

	Cl                1.014e+01   1.014e+01
	Mg                5.000e+00   5.000e+00
	Na                1.434e-01   1.434e-01

----------------------------Description of solution----------------------------

                                       pH  =   3.353      Charge balance
                                       pe  =   4.000      Adjusted to redox equilibrium
      Specific Conductance (µS/cm,   0°C)  = 56220
                          Density (g/cm³)  =   1.30224
                               Volume (L)  =   1.13991
                        Viscosity (mPa s)  =  16.87670
                        Activity of water  =   0.395
                 Ionic strength (mol/kgw)  =   1.514e+01
                       Mass of water (kg)  =   1.000e+00
                 Total alkalinity (eq/kg)  =   1.675e-14
                         Temperature (°C)  =   0.00
                  Electrical balance (eq)  =  -2.618e-08
 Percent error, 100*(Cat-|An|)/(Cat+|An|)  =  -0.00
                               Iterations  =  18
                         Gamma iterations  =   6
                      Osmotic coefficient  =   3.37198
                         Density of water  =   0.99984
                                  Total H  = 1.110124e+02
                                  Total O  = 5.550622e+01

----------------------------Distribution of species----------------------------

                                                    MacInnes  MacInnes
                                MacInnes       Log       Log       Log    mole V
   Species          Molality    Activity  Molality  Activity     Gamma   cm³/mol

   H+              1.445e-06   4.431e-04    -5.840    -3.353     2.487      0.00
   OH-             2.389e-10   1.027e-12    -9.622   -11.988    -2.366     13.23
   H2O             5.551e+01   3.951e-01     1.744    -0.403     0.000     18.02
Cl            1.014e+01
   Cl-             1.014e+01   1.071e+01     1.006     1.030     0.023     21.08
Mg            5.000e+00
   Mg+2            5.000e+00   1.000e+03     0.699     4.880     4.181    -14.91
   MgOH+           1.445e-06   9.690e-06    -5.840    -5.014     0.826     (0)  
Na            1.434e-01
   Na+             1.434e-01   2.966e+00    -0.843     0.472     1.315      2.95

------------------------------Saturation indices-------------------------------

  Phase               SI** log IAP   log K(273 K,   1 atm)

  Bischofite       -0.39      4.52    4.91  MgCl2:6H2O
  Brucite          -7.89    -19.10  -11.21  Mg(OH)2
  H2O(g)           -2.61     -0.40    2.21  H2O
  Halite            0.00      1.50    1.50  NaCl
  MgCl2_2H2O      -10.70      6.13   16.83  MgCl2:2H2O
  MgCl2_4H2O       -2.16      5.33    7.48  MgCl2:4H2O

**For a gas, SI = log10(fugacity). Fugacity = pressure * phi / 1 atm.
  For ideal gases, phi = 1.

Reaction step 7.

Using solution 1.	
Using pure phase assemblage 1.	
Using reaction 1.	

Reaction 1.	

	  1.000e+00 moles of the following reaction have been added:

	                 Relative
	Reactant            moles

	MgCl2                1.00000

	                 Relative
	Element             moles
	Cl                   2.00000
	Mg                   1.00000

-------------------------------Phase assemblage--------------------------------

                                                      Moles in assemblage
Phase               SI  log IAP  log K(T, P)   Initial       Final       Delta

Bischofite       -0.00     4.91      4.91    0.000e+00   1.145e+00   1.145e+00
Halite            0.00     1.50      1.50    9.857e+00   9.936e+00   7.912e-02

-----------------------------Solution composition------------------------------

	Elements           Molality       Moles

	Cl                1.116e+01   9.774e+00
	Mg                5.541e+00   4.855e+00
	Na                7.341e-02   6.432e-02

----------------------------Description of solution----------------------------

                                       pH  =   3.003      Charge balance
                                       pe  =   4.000      Adjusted to redox equilibrium
      Specific Conductance (µS/cm,   0°C)  = 47345
                          Density (g/cm³)  =   1.32143
                               Volume (L)  =   1.01576
                        Viscosity (mPa s)  =  22.75143
                        Activity of water  =   0.324
                 Ionic strength (mol/kgw)  =   1.670e+01
                       Mass of water (kg)  =   8.762e-01
                 Total alkalinity (eq/kg)  =   2.071e-14
                         Temperature (°C)  =   0.00
                  Electrical balance (eq)  =  -3.013e-08
 Percent error, 100*(Cat-|An|)/(Cat+|An|)  =  -0.00
                               Iterations  =  20
                         Gamma iterations  =   6
                      Osmotic coefficient  =   3.72652
                         Density of water  =   0.99984
                                  Total H  = 9.727342e+01
                                  Total O  = 4.863671e+01

----------------------------Distribution of species----------------------------

                                                    MacInnes  MacInnes
                                MacInnes       Log       Log       Log    mole V
   Species          Molality    Activity  Molality  Activity     Gamma   cm³/mol

   H+              1.701e-06   9.925e-04    -5.769    -3.003     2.766      0.00
   OH-             1.338e-10   3.766e-13    -9.874   -12.424    -2.551     15.07
   H2O             5.551e+01   3.244e-01     1.744    -0.489     0.000     18.02
Cl            1.116e+01
   Cl-             1.116e+01   1.375e+01     1.047     1.138     0.091     21.41
Mg            5.541e+00
   Mg+2            5.541e+00   1.000e+03     0.744     5.563     4.820    -14.44
   MgOH+           1.700e-06   1.716e-05    -5.769    -4.766     1.004     (0)  
Na            7.341e-02
   Na+             7.341e-02   2.308e+00    -1.134     0.363     1.498      3.30

------------------------------Saturation indices-------------------------------

  Phase               SI** log IAP   log K(273 K,   1 atm)

  Bischofite       -0.00      4.91    4.91  MgCl2:6H2O
  Brucite          -8.08    -19.28  -11.21  Mg(OH)2
  H2O(g)           -2.70     -0.49    2.21  H2O
  Halite            0.00      1.50    1.50  NaCl
  MgCl2_2H2O       -9.97      6.86   16.83  MgCl2:2H2O
  MgCl2_4H2O       -1.60      5.88    7.48  MgCl2:4H2O

**For a gas, SI = log10(fugacity). Fugacity = pressure * phi / 1 atm.
  For ideal gases, phi = 1.

Reaction step 8.

Using solution 1.	
Using pure phase assemblage 1.	
Using reaction 1.	

Reaction 1.	

	  1.000e+00 moles of the following reaction have been added:

	                 Relative
	Reactant            moles

	MgCl2                1.00000

	                 Relative
	Element             moles
	Cl                   2.00000
	Mg                   1.00000

-------------------------------Phase assemblage--------------------------------

                                                      Moles in assemblage
Phase               SI  log IAP  log K(T, P)   Initial       Final       Delta

Bischofite        0.00     4.91      4.91    1.145e+00   3.638e+00   2.493e+00
Halite            0.00     1.50      1.50    9.936e+00   9.955e+00   1.978e-02

-----------------------------Solution composition------------------------------

	Elements           Molality       Moles

	Cl                1.116e+01   6.768e+00
	Mg                5.541e+00   3.362e+00
	Na                7.341e-02   4.454e-02

----------------------------Description of solution----------------------------

                                       pH  =   3.003      Charge balance
                                       pe  =   4.000      Adjusted to redox equilibrium
      Specific Conductance (µS/cm,   0°C)  = 47345
                          Density (g/cm³)  =   1.32143
                               Volume (L)  =   0.70332
                        Viscosity (mPa s)  =  22.75143
                        Activity of water  =   0.324
                 Ionic strength (mol/kgw)  =   1.670e+01
                       Mass of water (kg)  =   6.067e-01
                 Total alkalinity (eq/kg)  =   3.201e-14
                         Temperature (°C)  =   0.00
                  Electrical balance (eq)  =  -3.013e-08
 Percent error, 100*(Cat-|An|)/(Cat+|An|)  =  -0.00
                               Iterations  =   5
                         Gamma iterations  =   1
                      Osmotic coefficient  =   3.72652
                         Density of water  =   0.99984
                                  Total H  = 6.735267e+01
                                  Total O  = 3.367634e+01

----------------------------Distribution of species----------------------------

                                                    MacInnes  MacInnes
                                MacInnes       Log       Log       Log    mole V
   Species          Molality    Activity  Molality  Activity     Gamma   cm³/mol

   H+              1.701e-06   9.925e-04    -5.769    -3.003     2.766      0.00
   OH-             1.338e-10   3.766e-13    -9.874   -12.424    -2.551     15.07
   H2O             5.551e+01   3.244e-01     1.744    -0.489     0.000     18.02
Cl            1.116e+01
   Cl-             1.116e+01   1.375e+01     1.047     1.138     0.091     21.41
Mg            5.541e+00
   Mg+2            5.541e+00   1.000e+03     0.744     5.563     4.820    -14.44
   MgOH+           1.700e-06   1.716e-05    -5.769    -4.766     1.004     (0)  
Na            7.341e-02
   Na+             7.341e-02   2.308e+00    -1.134     0.363     1.498      3.30

------------------------------Saturation indices-------------------------------

  Phase               SI** log IAP   log K(273 K,   1 atm)

  Bischofite        0.00      4.91    4.91  MgCl2:6H2O
  Brucite          -8.08    -19.28  -11.21  Mg(OH)2
  H2O(g)           -2.70     -0.49    2.21  H2O
  Halite            0.00      1.50    1.50  NaCl
  MgCl2_2H2O       -9.97      6.86   16.83  MgCl2:2H2O
  MgCl2_4H2O       -1.60      5.88    7.48  MgCl2:4H2O

**For a gas, SI = log10(fugacity). Fugacity = pressure * phi / 1 atm.
  For ideal gases, phi = 1.

Reaction step 9.

Using solution 1.	
Using pure phase assemblage 1.	
Using reaction 1.	

Reaction 1.	

	  1.000e+00 moles of the following reaction have been added:

	                 Relative
	Reactant            moles

	MgCl2                1.00000

	                 Relative
	Element             moles
	Cl                   2.00000
	Mg                   1.00000

-------------------------------Phase assemblage--------------------------------

                                                      Moles in assemblage
Phase               SI  log IAP  log K(T, P)   Initial       Final       Delta

Bischofite        0.00     4.91      4.91    3.638e+00   6.132e+00   2.493e+00
Halite            0.00     1.50      1.50    9.955e+00   9.975e+00   1.978e-02

-----------------------------Solution composition------------------------------

	Elements           Molality       Moles

	Cl                1.116e+01   3.761e+00
	Mg                5.541e+00   1.868e+00
	Na                7.341e-02   2.475e-02

----------------------------Description of solution----------------------------

                                       pH  =   3.003      Charge balance
                                       pe  =   4.000      Adjusted to redox equilibrium
      Specific Conductance (µS/cm,   0°C)  = 47345
                          Density (g/cm³)  =   1.32143
                               Volume (L)  =   0.39088
                        Viscosity (mPa s)  =  22.75143
                        Activity of water  =   0.324
                 Ionic strength (mol/kgw)  =   1.670e+01
                       Mass of water (kg)  =   3.372e-01
                 Total alkalinity (eq/kg)  =   5.996e-14
                         Temperature (°C)  =   0.00
                  Electrical balance (eq)  =  -3.013e-08
 Percent error, 100*(Cat-|An|)/(Cat+|An|)  =  -0.00
                               Iterations  =   6
                         Gamma iterations  =   1
                      Osmotic coefficient  =   3.72652
                         Density of water  =   0.99984
                                  Total H  = 3.743193e+01
                                  Total O  = 1.871597e+01

----------------------------Distribution of species----------------------------

                                                    MacInnes  MacInnes
                                MacInnes       Log       Log       Log    mole V
   Species          Molality    Activity  Molality  Activity     Gamma   cm³/mol

   H+              1.701e-06   9.925e-04    -5.769    -3.003     2.766      0.00
   OH-             1.338e-10   3.766e-13    -9.874   -12.424    -2.551     15.07
   H2O             5.551e+01   3.244e-01     1.744    -0.489     0.000     18.02
Cl            1.116e+01
   Cl-             1.116e+01   1.375e+01     1.047     1.138     0.091     21.41
Mg            5.541e+00
   Mg+2            5.541e+00   1.000e+03     0.744     5.563     4.820    -14.44
   MgOH+           1.700e-06   1.716e-05    -5.769    -4.766     1.004     (0)  
Na            7.341e-02
   Na+             7.341e-02   2.308e+00    -1.134     0.363     1.498      3.30

------------------------------Saturation indices-------------------------------

  Phase               SI** log IAP   log K(273 K,   1 atm)

  Bischofite        0.00      4.91    4.91  MgCl2:6H2O
  Brucite          -8.08    -19.28  -11.21  Mg(OH)2
  H2O(g)           -2.70     -0.49    2.21  H2O
  Halite            0.00      1.50    1.50  NaCl
  MgCl2_2H2O       -9.97      6.86   16.83  MgCl2:2H2O
  MgCl2_4H2O       -1.60      5.88    7.48  MgCl2:4H2O

**For a gas, SI = log10(fugacity). Fugacity = pressure * phi / 1 atm.
  For ideal gases, phi = 1.

Reaction step 10.

Using solution 1.	
Using pure phase assemblage 1.	
Using reaction 1.	

Reaction 1.	

	  1.000e+00 moles of the following reaction have been added:

	                 Relative
	Reactant            moles

	MgCl2                1.00000

	                 Relative
	Element             moles
	Cl                   2.00000
	Mg                   1.00000

-------------------------------Phase assemblage--------------------------------

                                                      Moles in assemblage
Phase               SI  log IAP  log K(T, P)   Initial       Final       Delta

Bischofite        0.00     4.91      4.91    6.132e+00   8.625e+00   2.493e+00
Halite            0.00     1.50      1.50    9.975e+00   9.995e+00   1.978e-02

-----------------------------Solution composition------------------------------

	Elements           Molality       Moles

	Cl                1.116e+01   7.548e-01
	Mg                5.541e+00   3.749e-01
	Na                7.341e-02   4.967e-03

----------------------------Description of solution----------------------------

                                       pH  =   3.003      Charge balance
                                       pe  =   4.000      Adjusted to redox equilibrium
      Specific Conductance (µS/cm,   0°C)  = 47345
                          Density (g/cm³)  =   1.32143
                               Volume (L)  =   0.07843
                        Viscosity (mPa s)  =  22.75143
                        Activity of water  =   0.324
                 Ionic strength (mol/kgw)  =   1.670e+01
                       Mass of water (kg)  =   6.766e-02
                 Total alkalinity (eq/kg)  =   2.983e-13
                         Temperature (°C)  =   0.00
                  Electrical balance (eq)  =  -3.013e-08
 Percent error, 100*(Cat-|An|)/(Cat+|An|)  =  -0.00
                               Iterations  =  14
                         Gamma iterations  =   1
                      Osmotic coefficient  =   3.72652
                         Density of water  =   0.99984
                                  Total H  = 7.511187e+00
                                  Total O  = 3.755594e+00

----------------------------Distribution of species----------------------------

                                                    MacInnes  MacInnes
                                MacInnes       Log       Log       Log    mole V
   Species          Molality    Activity  Molality  Activity     Gamma   cm³/mol

   H+              1.701e-06   9.925e-04    -5.769    -3.003     2.766      0.00
   OH-             1.338e-10   3.766e-13    -9.874   -12.424    -2.551     15.07
   H2O             5.551e+01   3.244e-01     1.744    -0.489     0.000     18.02
Cl            1.116e+01
   Cl-             1.116e+01   1.375e+01     1.047     1.138     0.091     21.41
Mg            5.541e+00
   Mg+2            5.541e+00   1.000e+03     0.744     5.563     4.820    -14.44
   MgOH+           1.700e-06   1.716e-05    -5.769    -4.766     1.004     (0)  
Na            7.341e-02
   Na+             7.341e-02   2.308e+00    -1.134     0.363     1.498      3.30

------------------------------Saturation indices-------------------------------

  Phase               SI** log IAP   log K(273 K,   1 atm)

  Bischofite        0.00      4.91    4.91  MgCl2:6H2O
  Brucite          -8.08    -19.28  -11.21  Mg(OH)2
  H2O(g)           -2.70     -0.49    2.21  H2O
  Halite            0.00      1.50    1.50  NaCl
  MgCl2_2H2O       -9.97      6.86   16.83  MgCl2:2H2O
  MgCl2_4H2O       -1.60      5.88    7.48  MgCl2:4H2O

**For a gas, SI = log10(fugacity). Fugacity = pressure * phi / 1 atm.
  For ideal gases, phi = 1.

------------------
End of simulation.
------------------

------------------------------------
Reading input data for simulation 2.
------------------------------------

	USE equilibrium_phases 1
	 USE reaction 1
	SOLUTION 1
	 pH 7 charge
	 temp 100
	USER_GRAPH 
	-headings x 100.oC SI_Bischofite
	END
-------------------------------------------
Beginning of initial solution calculations.
-------------------------------------------

Initial solution 1.	

-----------------------------Solution composition------------------------------

	Elements           Molality       Moles

	Pure water     

----------------------------Description of solution----------------------------

                                       pH  =   6.119      Charge balance
                                       pe  =   4.000    
      Specific Conductance (µS/cm, 100°C)  = 0
                          Density (g/cm³)  =   0.95835
                               Volume (L)  =   1.04346
                        Viscosity (mPa s)  =   0.28158
                        Activity of water  =   1.000
                 Ionic strength (mol/kgw)  =   7.610e-07
                       Mass of water (kg)  =   1.000e+00
                 Total alkalinity (eq/kg)  =   0.000e+00
                         Temperature (°C)  = 100.00
                  Electrical balance (eq)  =   0.000e+00
 Percent error, 100*(Cat-|An|)/(Cat+|An|)  =   0.00
                               Iterations  =   7
                         Gamma iterations  =   2
                      Osmotic coefficient  =   0.99960
                         Density of water  =   0.95835
                                  Total H  = 1.110124e+02
                                  Total O  = 5.550622e+01

----------------------------Distribution of species----------------------------

                                                    MacInnes  MacInnes
                                MacInnes       Log       Log       Log    mole V
   Species          Molality    Activity  Molality  Activity     Gamma   cm³/mol

   OH-             7.610e-07   7.601e-07    -6.119    -6.119    -0.001     -5.96
   H+              7.610e-07   7.601e-07    -6.119    -6.119    -0.001      0.00
   H2O             5.551e+01   1.000e+00     1.744    -0.000     0.000     18.80

------------------------------Saturation indices-------------------------------

  Phase               SI** log IAP   log K(373 K,   1 atm)

  H2O(g)           -0.00     -0.00    0.00  H2O

**For a gas, SI = log10(fugacity). Fugacity = pressure * phi / 1 atm.
  For ideal gases, phi = 1.

-----------------------------------------
Beginning of batch-reaction calculations.
-----------------------------------------

Reaction step 1.

WARNING: Element Mg is contained in Bischofite (which has 0.0 mass),	
but is not in solution or other phases.
WARNING: Element in phase, Bischofite, is not in model.
Using solution 1.	
Using pure phase assemblage 1.	
Using reaction 1.	

Reaction 1.	

	  0.000e+00 moles of the following reaction have been added:

	                 Relative
	Reactant            moles

	MgCl2                1.00000

	                 Relative
	Element             moles
	Cl                   2.00000
	Mg                   1.00000

-------------------------------Phase assemblage--------------------------------

                                                      Moles in assemblage
Phase               SI  log IAP  log K(T, P)   Initial       Final       Delta

Bischofite           Element not present.    0.000e+00           0   0.000e+00
Halite            0.00     1.58      1.58    1.000e+01   3.276e+00  -6.724e+00

-----------------------------Solution composition------------------------------

	Elements           Molality       Moles

	Cl                6.724e+00   6.724e+00
	Na                6.724e+00   6.724e+00

----------------------------Description of solution----------------------------

                                       pH  =   5.531      Charge balance
                                       pe  =   4.000      Adjusted to redox equilibrium
      Specific Conductance (µS/cm, 100°C)  = 643850
                          Density (g/cm³)  =   1.16966
                               Volume (L)  =   1.19092
                        Viscosity (mPa s)  =   0.60356
                        Activity of water  =   0.740
                 Ionic strength (mol/kgw)  =   6.724e+00
                       Mass of water (kg)  =   1.000e+00
                 Total alkalinity (eq/kg)  =   1.873e-16
                         Temperature (°C)  = 100.00
                  Electrical balance (eq)  =  -9.373e-13
 Percent error, 100*(Cat-|An|)/(Cat+|An|)  =  -0.00
                               Iterations  =  14
                         Gamma iterations  =   5
                      Osmotic coefficient  =   1.24414
                         Density of water  =   0.95835
                                  Total H  = 1.110124e+02
                                  Total O  = 5.550622e+01

----------------------------Distribution of species----------------------------

                                                    MacInnes  MacInnes
                                MacInnes       Log       Log       Log    mole V
   Species          Molality    Activity  Molality  Activity     Gamma   cm³/mol

   OH-             5.201e-07   1.452e-07    -6.284    -6.838    -0.554      6.59
   H+              5.201e-07   2.943e-06    -6.284    -5.531     0.753      0.00
   H2O             5.551e+01   7.398e-01     1.744    -0.131     0.000     18.80
Cl            6.724e+00
   Cl-             6.724e+00   4.102e+00     0.828     0.613    -0.215     20.04
Na            6.724e+00
   Na+             6.724e+00   9.339e+00     0.828     0.970     0.143      1.89

------------------------------Saturation indices-------------------------------

  Phase               SI** log IAP   log K(373 K,   1 atm)

  H2O(g)           -0.14     -0.13    0.00  H2O
  Halite            0.00      1.58    1.58  NaCl

**For a gas, SI = log10(fugacity). Fugacity = pressure * phi / 1 atm.
  For ideal gases, phi = 1.

Reaction step 2.

Using solution 1.	
Using pure phase assemblage 1.	
Using reaction 1.	

Reaction 1.	

	  1.000e+00 moles of the following reaction have been added:

	                 Relative
	Reactant            moles

	MgCl2                1.00000

	                 Relative
	Element             moles
	Cl                   2.00000
	Mg                   1.00000

-------------------------------Phase assemblage--------------------------------

                                                      Moles in assemblage
Phase               SI  log IAP  log K(T, P)   Initial       Final       Delta

Bischofite       -2.81     0.87      3.68    0.000e+00           0   0.000e+00
Halite            0.00     1.58      1.58    3.276e+00   5.048e+00   1.772e+00

-----------------------------Solution composition------------------------------

	Elements           Molality       Moles

	Cl                6.952e+00   6.952e+00
	Mg                1.000e+00   1.000e+00
	Na                4.952e+00   4.952e+00

----------------------------Description of solution----------------------------

                                       pH  =   4.016      Charge balance
                                       pe  =   4.000      Adjusted to redox equilibrium
      Specific Conductance (µS/cm, 100°C)  = 599082
                          Density (g/cm³)  =   1.17966
                               Volume (L)  =   1.17376
                        Viscosity (mPa s)  =   0.67530
                        Activity of water  =   0.723
                 Ionic strength (mol/kgw)  =   7.952e+00
                       Mass of water (kg)  =   1.000e+00
                 Total alkalinity (eq/kg)  =   6.948e-15
                         Temperature (°C)  = 100.00
                  Electrical balance (eq)  =  -3.649e-09
 Percent error, 100*(Cat-|An|)/(Cat+|An|)  =  -0.00
                               Iterations  =  11
                         Gamma iterations  =   4
                      Osmotic coefficient  =   1.39462
                         Density of water  =   0.95835
                                  Total H  = 1.110124e+02
                                  Total O  = 5.550622e+01

----------------------------Distribution of species----------------------------

                                                    MacInnes  MacInnes
                                MacInnes       Log       Log       Log    mole V
   Species          Molality    Activity  Molality  Activity     Gamma   cm³/mol

   H+              1.345e-05   9.632e-05    -4.871    -4.016     0.855      0.00
   OH-             3.555e-08   4.337e-09    -7.449    -8.363    -0.914      8.39
   H2O             5.551e+01   7.231e-01     1.744    -0.141     0.000     18.80
Cl            6.952e+00
   Cl-             6.952e+00   4.370e+00     0.842     0.640    -0.202     20.26
Mg            1.000e+00
   Mg+2            1.000e+00   2.699e+00    -0.000     0.431     0.431    -20.27
   MgOH+           1.341e-05   5.877e-06    -4.872    -5.231    -0.358     (0)  
Na            4.952e+00
   Na+             4.952e+00   8.765e+00     0.695     0.943     0.248      1.96

------------------------------Saturation indices-------------------------------

  Phase               SI** log IAP   log K(373 K,   1 atm)

  Bischofite       -2.81      0.87    3.68  MgCl2:6H2O
  Brucite          -6.13    -16.29  -10.17  Mg(OH)2
  H2O(g)           -0.15     -0.14    0.00  H2O
  Halite            0.00      1.58    1.58  NaCl
  MgCl2_2H2O       -8.14      1.43    9.57  MgCl2:2H2O
  MgCl2_4H2O       -4.32      1.15    5.47  MgCl2:4H2O

**For a gas, SI = log10(fugacity). Fugacity = pressure * phi / 1 atm.
  For ideal gases, phi = 1.

Reaction step 3.

Using solution 1.	
Using pure phase assemblage 1.	
Using reaction 1.	

Reaction 1.	

	  1.000e+00 moles of the following reaction have been added:

	                 Relative
	Reactant            moles

	MgCl2                1.00000

	                 Relative
	Element             moles
	Cl                   2.00000
	Mg                   1.00000

-------------------------------Phase assemblage--------------------------------

                                                      Moles in assemblage
Phase               SI  log IAP  log K(T, P)   Initial       Final       Delta

Bischofite       -2.30     1.38      3.68    0.000e+00           0   0.000e+00
Halite            0.00     1.58      1.58    5.048e+00   6.652e+00   1.604e+00

-----------------------------Solution composition------------------------------

	Elements           Molality       Moles

	Cl                7.348e+00   7.348e+00
	Mg                2.000e+00   2.000e+00
	Na                3.348e+00   3.348e+00

----------------------------Description of solution----------------------------

                                       pH  =   3.719      Charge balance
                                       pe  =   4.000      Adjusted to redox equilibrium
      Specific Conductance (µS/cm, 100°C)  = 556661
                          Density (g/cm³)  =   1.19406
                               Volume (L)  =   1.16083
                        Viscosity (mPa s)  =   0.78679
                        Activity of water  =   0.696
                 Ionic strength (mol/kgw)  =   9.348e+00
                       Mass of water (kg)  =   1.000e+00
                 Total alkalinity (eq/kg)  =   2.464e-14
                         Temperature (°C)  = 100.00
                  Electrical balance (eq)  =  -1.806e-08
 Percent error, 100*(Cat-|An|)/(Cat+|An|)  =  -0.00
                               Iterations  =  10
                         Gamma iterations  =   4
                      Osmotic coefficient  =   1.58225
                         Density of water  =   0.95835
                                  Total H  = 1.110124e+02
                                  Total O  = 5.550622e+01

----------------------------Distribution of species----------------------------

                                                    MacInnes  MacInnes
                                MacInnes       Log       Log       Log    mole V
   Species          Molality    Activity  Molality  Activity     Gamma   cm³/mol

   H+              1.884e-05   1.909e-04    -4.725    -3.719     1.006      0.00
   OH-             3.836e-08   2.108e-09    -7.416    -8.676    -1.260     10.39
   H2O             5.551e+01   6.963e-01     1.744    -0.157     0.000     18.80
Cl            7.348e+00
   Cl-             7.348e+00   4.741e+00     0.866     0.676    -0.190     20.47
Mg            2.000e+00
   Mg+2            2.000e+00   9.360e+00     0.301     0.971     0.670    -19.93
   MgOH+           1.880e-05   9.907e-06    -4.726    -5.004    -0.278     (0)  
Na            3.348e+00
   Na+             3.348e+00   8.080e+00     0.525     0.907     0.383      2.04

------------------------------Saturation indices-------------------------------

  Phase               SI** log IAP   log K(373 K,   1 atm)

  Bischofite       -2.30      1.38    3.68  MgCl2:6H2O
  Brucite          -6.22    -16.38  -10.17  Mg(OH)2
  H2O(g)           -0.16     -0.16    0.00  H2O
  Halite            0.00      1.58    1.58  NaCl
  MgCl2_2H2O       -7.56      2.01    9.57  MgCl2:2H2O
  MgCl2_4H2O       -3.77      1.69    5.47  MgCl2:4H2O

**For a gas, SI = log10(fugacity). Fugacity = pressure * phi / 1 atm.
  For ideal gases, phi = 1.

Reaction step 4.

Using solution 1.	
Using pure phase assemblage 1.	
Using reaction 1.	

Reaction 1.	

	  1.000e+00 moles of the following reaction have been added:

	                 Relative
	Reactant            moles

	MgCl2                1.00000

	                 Relative
	Element             moles
	Cl                   2.00000
	Mg                   1.00000

-------------------------------Phase assemblage--------------------------------

                                                      Moles in assemblage
Phase               SI  log IAP  log K(T, P)   Initial       Final       Delta

Bischofite       -1.84     1.84      3.68    0.000e+00           0   0.000e+00
Halite            0.00     1.58      1.58    6.652e+00   7.986e+00   1.334e+00

-----------------------------Solution composition------------------------------

	Elements           Molality       Moles

	Cl                8.014e+00   8.014e+00
	Mg                3.000e+00   3.000e+00
	Na                2.014e+00   2.014e+00

----------------------------Description of solution----------------------------

                                       pH  =   3.413      Charge balance
                                       pe  =   4.000      Adjusted to redox equilibrium
      Specific Conductance (µS/cm, 100°C)  = 505888
                          Density (g/cm³)  =   1.21521
                               Volume (L)  =   1.15480
                        Viscosity (mPa s)  =   0.97790
                        Activity of water  =   0.652
                 Ionic strength (mol/kgw)  =   1.101e+01
                       Mass of water (kg)  =   1.000e+00
                 Total alkalinity (eq/kg)  =   8.267e-14
                         Temperature (°C)  = 100.00
                  Electrical balance (eq)  =  -7.231e-08
 Percent error, 100*(Cat-|An|)/(Cat+|An|)  =  -0.00
                               Iterations  =  10
                         Gamma iterations  =   4
                      Osmotic coefficient  =   1.82002
                         Density of water  =   0.95835
                                  Total H  = 1.110124e+02
                                  Total O  = 5.550622e+01

----------------------------Distribution of species----------------------------

                                                    MacInnes  MacInnes
                                MacInnes       Log       Log       Log    mole V
   Species          Molality    Activity  Molality  Activity     Gamma   cm³/mol

   H+              2.275e-05   3.862e-04    -4.643    -3.413     1.230      0.00
   OH-             3.905e-08   9.759e-10    -7.408    -9.011    -1.602     12.73
   H2O             5.551e+01   6.524e-01     1.744    -0.186     0.000     18.80
Cl            8.014e+00
   Cl-             8.014e+00   5.256e+00     0.904     0.721    -0.183     20.67
Mg            3.000e+00
   Mg+2            3.000e+00   3.218e+01     0.477     1.508     1.030    -19.53
   MgOH+           2.271e-05   1.577e-05    -4.644    -4.802    -0.158     (0)  
Na            2.014e+00
   Na+             2.014e+00   7.288e+00     0.304     0.863     0.559      2.12

------------------------------Saturation indices-------------------------------

  Phase               SI** log IAP   log K(373 K,   1 atm)

  Bischofite       -1.84      1.84    3.68  MgCl2:6H2O
  Brucite          -6.35    -16.51  -10.17  Mg(OH)2
  H2O(g)           -0.19     -0.19    0.00  H2O
  Halite            0.00      1.58    1.58  NaCl
  MgCl2_2H2O       -6.99      2.58    9.57  MgCl2:2H2O
  MgCl2_4H2O       -3.26      2.21    5.47  MgCl2:4H2O

**For a gas, SI = log10(fugacity). Fugacity = pressure * phi / 1 atm.
  For ideal gases, phi = 1.

Reaction step 5.

Using solution 1.	
Using pure phase assemblage 1.	
Using reaction 1.	

Reaction 1.	

	  1.000e+00 moles of the following reaction have been added:

	                 Relative
	Reactant            moles

	MgCl2                1.00000

	                 Relative
	Element             moles
	Cl                   2.00000
	Mg                   1.00000

-------------------------------Phase assemblage--------------------------------

                                                      Moles in assemblage
Phase               SI  log IAP  log K(T, P)   Initial       Final       Delta

Bischofite       -1.37     2.31      3.68    0.000e+00           0   0.000e+00
Halite           -0.00     1.58      1.58    7.986e+00   8.945e+00   9.591e-01

-----------------------------Solution composition------------------------------

	Elements           Molality       Moles

	Cl                9.055e+00   9.055e+00
	Mg                4.000e+00   4.000e+00
	Na                1.055e+00   1.055e+00

----------------------------Description of solution----------------------------

                                       pH  =   3.031      Charge balance
                                       pe  =   4.000      Adjusted to redox equilibrium
      Specific Conductance (µS/cm, 100°C)  = 442931
                          Density (g/cm³)  =   1.24506
                               Volume (L)  =   1.15857
                        Viscosity (mPa s)  =   1.31402
                        Activity of water  =   0.584
                 Ionic strength (mol/kgw)  =   1.305e+01
                       Mass of water (kg)  =   1.000e+00
                 Total alkalinity (eq/kg)  =   3.634e-13
                         Temperature (°C)  = 100.00
                  Electrical balance (eq)  =  -1.609e-07
 Percent error, 100*(Cat-|An|)/(Cat+|An|)  =  -0.00
                               Iterations  =  10
                         Gamma iterations  =   4
                      Osmotic coefficient  =   2.11752
                         Density of water  =   0.95835
                                  Total H  = 1.110124e+02
                                  Total O  = 5.550622e+01

----------------------------Distribution of species----------------------------

                                                    MacInnes  MacInnes
                                MacInnes       Log       Log       Log    mole V
   Species          Molality    Activity  Molality  Activity     Gamma   cm³/mol

   H+              2.584e-05   9.301e-04    -4.588    -3.031     1.556      0.00
   OH-             3.232e-08   3.626e-10    -7.491    -9.441    -1.950     15.54
   H2O             5.551e+01   5.838e-01     1.744    -0.234     0.000     18.80
Cl            9.055e+00
   Cl-             9.055e+00   5.908e+00     0.957     0.771    -0.185     20.87
Mg            4.000e+00
   Mg+2            4.000e+00   1.470e+02     0.602     2.167     1.565    -19.06
   MgOH+           2.581e-05   2.676e-05    -4.588    -4.572     0.016     (0)  
Na            1.055e+00
   Na+             1.055e+00   6.483e+00     0.023     0.812     0.789      2.20

------------------------------Saturation indices-------------------------------

  Phase               SI** log IAP   log K(373 K,   1 atm)

  Bischofite       -1.37      2.31    3.68  MgCl2:6H2O
  Brucite          -6.55    -16.71  -10.17  Mg(OH)2
  H2O(g)           -0.24     -0.23    0.00  H2O
  Halite           -0.00      1.58    1.58  NaCl
  MgCl2_2H2O       -6.32      3.24    9.57  MgCl2:2H2O
  MgCl2_4H2O       -2.69      2.78    5.47  MgCl2:4H2O

**For a gas, SI = log10(fugacity). Fugacity = pressure * phi / 1 atm.
  For ideal gases, phi = 1.

Reaction step 6.

Using solution 1.	
Using pure phase assemblage 1.	
Using reaction 1.	

Reaction 1.	

	  1.000e+00 moles of the following reaction have been added:

	                 Relative
	Reactant            moles

	MgCl2                1.00000

	                 Relative
	Element             moles
	Cl                   2.00000
	Mg                   1.00000

-------------------------------Phase assemblage--------------------------------

                                                      Moles in assemblage
Phase               SI  log IAP  log K(T, P)   Initial       Final       Delta

Bischofite       -0.90     2.78      3.68    0.000e+00           0   0.000e+00
Halite            0.00     1.58      1.58    8.945e+00   9.509e+00   5.635e-01

-----------------------------Solution composition------------------------------

	Elements           Molality       Moles

	Cl                1.049e+01   1.049e+01
	Mg                5.000e+00   5.000e+00
	Na                4.911e-01   4.911e-01

----------------------------Description of solution----------------------------

                                       pH  =   2.555      Charge balance
                                       pe  =   4.000      Adjusted to redox equilibrium
      Specific Conductance (µS/cm, 100°C)  = 371617
                          Density (g/cm³)  =   1.28283
                               Volume (L)  =   1.17300
                        Viscosity (mPa s)  =   1.88949
                        Activity of water  =   0.491
                 Ionic strength (mol/kgw)  =   1.549e+01
                       Mass of water (kg)  =   1.000e+00
                 Total alkalinity (eq/kg)  =   3.621e-13
                         Temperature (°C)  = 100.00
                  Electrical balance (eq)  =  -1.609e-07
 Percent error, 100*(Cat-|An|)/(Cat+|An|)  =  -0.00
                               Iterations  =  11
                         Gamma iterations  =   4
                      Osmotic coefficient  =   2.46838
                         Density of water  =   0.95835
                                  Total H  = 1.110124e+02
                                  Total O  = 5.550622e+01

----------------------------Distribution of species----------------------------

                                                    MacInnes  MacInnes
                                MacInnes       Log       Log       Log    mole V
   Species          Molality    Activity  Molality  Activity     Gamma   cm³/mol

   H+              2.802e-05   2.787e-03    -4.552    -2.555     1.998      0.00
   OH-             2.110e-08   1.018e-10    -7.676    -9.992    -2.316     18.85
   H2O             5.551e+01   4.913e-01     1.744    -0.309     0.000     18.80
Cl            1.049e+01
   Cl-             1.049e+01   6.533e+00     1.021     0.815    -0.206     21.06
Mg            5.000e+00
   Mg+2            5.000e+00   1.000e+03     0.699     3.001     2.302    -18.50
   MgOH+           2.800e-05   5.128e-05    -4.553    -4.290     0.263     (0)  
Na            4.911e-01
   Na+             4.911e-01   5.863e+00    -0.309     0.768     1.077      2.30

------------------------------Saturation indices-------------------------------

  Phase               SI** log IAP   log K(373 K,   1 atm)

  Bischofite       -0.90      2.78    3.68  MgCl2:6H2O
  Brucite          -6.82    -16.98  -10.17  Mg(OH)2
  H2O(g)           -0.31     -0.31    0.00  H2O
  Halite            0.00      1.58    1.58  NaCl
  MgCl2_2H2O       -5.55      4.01    9.57  MgCl2:2H2O
  MgCl2_4H2O       -2.07      3.40    5.47  MgCl2:4H2O

**For a gas, SI = log10(fugacity). Fugacity = pressure * phi / 1 atm.
  For ideal gases, phi = 1.

Reaction step 7.

Using solution 1.	
Using pure phase assemblage 1.	
Using reaction 1.	

Reaction 1.	

	  1.000e+00 moles of the following reaction have been added:

	                 Relative
	Reactant            moles

	MgCl2                1.00000

	                 Relative
	Element             moles
	Cl                   2.00000
	Mg                   1.00000

-------------------------------Phase assemblage--------------------------------

                                                      Moles in assemblage
Phase               SI  log IAP  log K(T, P)   Initial       Final       Delta

Bischofite       -0.48     3.20      3.68    0.000e+00           0   0.000e+00
Halite            0.00     1.58      1.58    9.509e+00   9.783e+00   2.746e-01

-----------------------------Solution composition------------------------------

	Elements           Molality       Moles

	Cl                1.222e+01   1.222e+01
	Mg                6.000e+00   6.000e+00
	Na                2.166e-01   2.166e-01

----------------------------Description of solution----------------------------

                                       pH  =   2.004      Charge balance
                                       pe  =   4.000      Adjusted to redox equilibrium
      Specific Conductance (µS/cm, 100°C)  = 301360
                          Density (g/cm³)  =   1.32470
                               Volume (L)  =   1.19568
                        Viscosity (mPa s)  =   2.81801
                        Activity of water  =   0.388
                 Ionic strength (mol/kgw)  =   1.822e+01
                       Mass of water (kg)  =   1.000e+00
                 Total alkalinity (eq/kg)  =   3.791e-13
                         Temperature (°C)  = 100.00
                  Electrical balance (eq)  =  -1.609e-07
 Percent error, 100*(Cat-|An|)/(Cat+|An|)  =  -0.00
                               Iterations  =  13
                         Gamma iterations  =   5
                      Osmotic coefficient  =   2.85197
                         Density of water  =   0.95835
                                  Total H  = 1.110124e+02
                                  Total O  = 5.550622e+01

----------------------------Distribution of species----------------------------

                                                    MacInnes  MacInnes
                                MacInnes       Log       Log       Log    mole V
   Species          Molality    Activity  Molality  Activity     Gamma   cm³/mol

   H+              2.867e-05   9.897e-03    -4.543    -2.004     2.538      0.00
   OH-             1.168e-08   2.264e-11    -7.933   -10.645    -2.713     22.49
   H2O             5.551e+01   3.879e-01     1.744    -0.411     0.000     18.80
Cl            1.222e+01
   Cl-             1.222e+01   6.827e+00     1.087     0.834    -0.253     21.20
Mg            6.000e+00
   Mg+2            6.000e+00   1.000e+03     0.778     3.998     3.220    -17.88
   MgOH+           2.865e-05   1.131e-04    -4.543    -3.946     0.596     (0)  
Na            2.166e-01
   Na+             2.166e-01   5.611e+00    -0.664     0.749     1.413      2.39

------------------------------Saturation indices-------------------------------

  Phase               SI** log IAP   log K(373 K,   1 atm)

  Bischofite       -0.48      3.20    3.68  MgCl2:6H2O
  Brucite          -7.13    -17.29  -10.17  Mg(OH)2
  H2O(g)           -0.42     -0.41    0.00  H2O
  Halite            0.00      1.58    1.58  NaCl
  MgCl2_2H2O       -4.72      4.84    9.57  MgCl2:2H2O
  MgCl2_4H2O       -1.45      4.02    5.47  MgCl2:4H2O

**For a gas, SI = log10(fugacity). Fugacity = pressure * phi / 1 atm.
  For ideal gases, phi = 1.

Reaction step 8.

Using solution 1.	
Using pure phase assemblage 1.	
Using reaction 1.	

Reaction 1.	

	  1.000e+00 moles of the following reaction have been added:

	                 Relative
	Reactant            moles

	MgCl2                1.00000

	                 Relative
	Element             moles
	Cl                   2.00000
	Mg                   1.00000

-------------------------------Phase assemblage--------------------------------

                                                      Moles in assemblage
Phase               SI  log IAP  log K(T, P)   Initial       Final       Delta

Bischofite       -0.16     3.52      3.68    0.000e+00           0   0.000e+00
Halite           -0.00     1.58      1.58    9.783e+00   9.904e+00   1.208e-01

-----------------------------Solution composition------------------------------

	Elements           Molality       Moles

	Cl                1.410e+01   1.410e+01
	Mg                7.000e+00   7.000e+00
	Na                9.579e-02   9.579e-02

----------------------------Description of solution----------------------------

                                       pH  =   1.412      Charge balance
                                       pe  =   4.000      Adjusted to redox equilibrium
      Specific Conductance (µS/cm, 100°C)  = 240222
                          Density (g/cm³)  =   1.36688
                               Volume (L)  =   1.22328
                        Viscosity (mPa s)  =   4.22270
                        Activity of water  =   0.289
                 Ionic strength (mol/kgw)  =   2.110e+01
                       Mass of water (kg)  =   1.000e+00
                 Total alkalinity (eq/kg)  =   4.837e-13
                         Temperature (°C)  = 100.00
                  Electrical balance (eq)  =  -1.609e-07
 Percent error, 100*(Cat-|An|)/(Cat+|An|)  =  -0.00
                               Iterations  =  13
                         Gamma iterations  =   5
                      Osmotic coefficient  =   3.25029
                         Density of water  =   0.95835
                                  Total H  = 1.110124e+02
                                  Total O  = 5.550622e+01

----------------------------Distribution of species----------------------------

                                                    MacInnes  MacInnes
                                MacInnes       Log       Log       Log    mole V
   Species          Molality    Activity  Molality  Activity     Gamma   cm³/mol

   H+              2.728e-05   3.870e-02    -4.564    -1.412     3.152      0.00
   OH-             6.009e-09   4.316e-12    -8.221   -11.365    -3.144     26.28
   H2O             5.551e+01   2.891e-01     1.744    -0.539     0.000     18.80
Cl            1.410e+01
   Cl-             1.410e+01   6.568e+00     1.149     0.817    -0.332     21.30
Mg            7.000e+00
   Mg+2            7.000e+00   1.000e+03     0.845     5.121     4.275    -17.24
   MgOH+           2.728e-05   2.861e-04    -4.564    -3.543     1.021     (0)  
Na            9.579e-02
   Na+             9.579e-02   5.832e+00    -1.019     0.766     1.784      2.48

------------------------------Saturation indices-------------------------------

  Phase               SI** log IAP   log K(373 K,   1 atm)

  Bischofite       -0.16      3.52    3.68  MgCl2:6H2O
  Brucite          -7.44    -17.61  -10.17  Mg(OH)2
  H2O(g)           -0.54     -0.54    0.00  H2O
  Halite           -0.00      1.58    1.58  NaCl
  MgCl2_2H2O       -3.89      5.68    9.57  MgCl2:2H2O
  MgCl2_4H2O       -0.87      4.60    5.47  MgCl2:4H2O

**For a gas, SI = log10(fugacity). Fugacity = pressure * phi / 1 atm.
  For ideal gases, phi = 1.

Reaction step 9.

Using solution 1.	
Using pure phase assemblage 1.	
Using reaction 1.	

Reaction 1.	

	  1.000e+00 moles of the following reaction have been added:

	                 Relative
	Reactant            moles

	MgCl2                1.00000

	                 Relative
	Element             moles
	Cl                   2.00000
	Mg                   1.00000

-------------------------------Phase assemblage--------------------------------

                                                      Moles in assemblage
Phase               SI  log IAP  log K(T, P)   Initial       Final       Delta

Bischofite        0.00     3.68      3.68    0.000e+00   1.842e+00   1.842e+00
Halite            0.00     1.58      1.58    9.904e+00   9.955e+00   5.125e-02

-----------------------------Solution composition------------------------------

	Elements           Molality       Moles

	Cl                1.543e+01   1.236e+01
	Mg                7.689e+00   6.158e+00
	Na                5.562e-02   4.455e-02

----------------------------Description of solution----------------------------

                                       pH  =   0.992      Charge balance
                                       pe  =   4.000      Adjusted to redox equilibrium
      Specific Conductance (µS/cm, 100°C)  = 204992
                          Density (g/cm³)  =   1.39502
                               Volume (L)  =   0.99622
                        Viscosity (mPa s)  =   5.53659
                        Activity of water  =   0.229
                 Ionic strength (mol/kgw)  =   2.312e+01
                       Mass of water (kg)  =   8.009e-01
                 Total alkalinity (eq/kg)  =   6.063e-13
                         Temperature (°C)  = 100.00
                  Electrical balance (eq)  =  -1.610e-07
 Percent error, 100*(Cat-|An|)/(Cat+|An|)  =  -0.00
                               Iterations  =  24
                         Gamma iterations  =   7
                      Osmotic coefficient  =   3.52832
                         Density of water  =   0.95835
                                  Total H  = 8.890523e+01
                                  Total O  = 4.445262e+01

----------------------------Distribution of species----------------------------

                                                    MacInnes  MacInnes
                                MacInnes       Log       Log       Log    mole V
   Species          Molality    Activity  Molality  Activity     Gamma   cm³/mol

   H+              2.519e-05   1.020e-01    -4.599    -0.992     3.607      0.00
   OH-             3.758e-09   1.298e-12    -8.425   -11.887    -3.462     28.92
   H2O             5.551e+01   2.292e-01     1.744    -0.640     0.000     18.80
Cl            1.543e+01
   Cl-             1.543e+01   6.063e+00     1.188     0.783    -0.406     21.35
Mg            7.689e+00
   Mg+2            7.689e+00   1.000e+03     0.886     5.953     5.067    -16.79
   MgOH+           2.518e-05   5.849e-04    -4.599    -3.233     1.366     (0)  
Na            5.562e-02
   Na+             5.562e-02   6.318e+00    -1.255     0.801     2.055      2.54

------------------------------Saturation indices-------------------------------

  Phase               SI** log IAP   log K(373 K,   1 atm)

  Bischofite        0.00      3.68    3.68  MgCl2:6H2O
  Brucite          -7.65    -17.82  -10.17  Mg(OH)2
  H2O(g)           -0.64     -0.64    0.00  H2O
  Halite            0.00      1.58    1.58  NaCl
  MgCl2_2H2O       -3.33      6.24    9.57  MgCl2:2H2O
  MgCl2_4H2O       -0.51      4.96    5.47  MgCl2:4H2O

**For a gas, SI = log10(fugacity). Fugacity = pressure * phi / 1 atm.
  For ideal gases, phi = 1.

Reaction step 10.

Using solution 1.	
Using pure phase assemblage 1.	
Using reaction 1.	

Reaction 1.	

	  1.000e+00 moles of the following reaction have been added:

	                 Relative
	Reactant            moles

	MgCl2                1.00000

	                 Relative
	Element             moles
	Cl                   2.00000
	Mg                   1.00000

-------------------------------Phase assemblage--------------------------------

                                                      Moles in assemblage
Phase               SI  log IAP  log K(T, P)   Initial       Final       Delta

Bischofite        0.00     3.68      3.68    1.842e+00   7.764e+00   5.922e+00
Halite            0.00     1.58      1.58    9.955e+00   9.991e+00   3.561e-02

-----------------------------Solution composition------------------------------

	Elements           Molality       Moles

	Cl                1.543e+01   2.480e+00
	Mg                7.689e+00   1.236e+00
	Na                5.562e-02   8.939e-03

----------------------------Description of solution----------------------------

                                       pH  =   0.992      Charge balance
                                       pe  =   4.000      Adjusted to redox equilibrium
      Specific Conductance (µS/cm, 100°C)  = 204992
                          Density (g/cm³)  =   1.39502
                               Volume (L)  =   0.19990
                        Viscosity (mPa s)  =   5.53659
                        Activity of water  =   0.229
                 Ionic strength (mol/kgw)  =   2.312e+01
                       Mass of water (kg)  =   1.607e-01
                 Total alkalinity (eq/kg)  =   3.020e-12
                         Temperature (°C)  = 100.00
                  Electrical balance (eq)  =  -1.621e-07
 Percent error, 100*(Cat-|An|)/(Cat+|An|)  =  -0.00
                               Iterations  =  15
                         Gamma iterations  =   2
                      Osmotic coefficient  =   3.52832
                         Density of water  =   0.95835
                                  Total H  = 1.783997e+01
                                  Total O  = 8.919984e+00

----------------------------Distribution of species----------------------------

                                                    MacInnes  MacInnes
                                MacInnes       Log       Log       Log    mole V
   Species          Molality    Activity  Molality  Activity     Gamma   cm³/mol

   H+              2.519e-05   1.020e-01    -4.599    -0.992     3.607      0.00
   OH-             3.758e-09   1.298e-12    -8.425   -11.887    -3.462     28.92
   H2O             5.551e+01   2.292e-01     1.744    -0.640     0.000     18.80
Cl            1.543e+01
   Cl-             1.543e+01   6.063e+00     1.188     0.783    -0.406     21.35
Mg            7.689e+00
   Mg+2            7.689e+00   1.000e+03     0.886     5.953     5.067    -16.79
   MgOH+           2.518e-05   5.849e-04    -4.599    -3.233     1.366     (0)  
Na            5.562e-02
   Na+             5.562e-02   6.318e+00    -1.255     0.801     2.055      2.54

------------------------------Saturation indices-------------------------------

  Phase               SI** log IAP   log K(373 K,   1 atm)

  Bischofite        0.00      3.68    3.68  MgCl2:6H2O
  Brucite          -7.65    -17.82  -10.17  Mg(OH)2
  H2O(g)           -0.64     -0.64    0.00  H2O
  Halite            0.00      1.58    1.58  NaCl
  MgCl2_2H2O       -3.33      6.24    9.57  MgCl2:2H2O
  MgCl2_4H2O       -0.51      4.96    5.47  MgCl2:4H2O

**For a gas, SI = log10(fugacity). Fugacity = pressure * phi / 1 atm.
  For ideal gases, phi = 1.

------------------
End of simulation.
------------------

------------------------------------
Reading input data for simulation 3.
------------------------------------

	REACTION 1
	 MgCl2 1
	 0 15*1
	EQUILIBRIUM_PHASES 1
	 Halite
	 MgCl2_2H2O 0 0
	SOLUTION 1
	 pH 7 charge
	 temp 200
	USER_GRAPH 
	-headings x 200.oC SI("MgCl2_2H2O")
	10 graph_x tot("Na")
	20 graph_y tot("Mg")
	30 if step_no > 0 then graph_sy SI("MgCl2_2H2O")
	-end
	END
-------------------------------------------
Beginning of initial solution calculations.
[...]
   OH-             4.048e-08   1.005e-12    -7.393   -11.998    -4.605     48.14
   H2O             5.551e+01   2.174e-01     1.744    -0.663     0.000     20.84
Cl            2.012e+01
   Cl-             2.012e+01   1.270e+00     1.304     0.104    -1.200     31.45
Mg            1.000e+01
   Mg+2            1.000e+01   1.000e+03     1.000     5.286     4.286    -35.22
   MgOH+           1.888e-05   9.556e-04    -4.724    -3.020     1.704     (0)  
Na            1.154e-01
   Na+             1.154e-01   1.224e+01    -0.938     1.088     2.026      2.53

------------------------------Saturation indices-------------------------------

  Phase               SI** log IAP   log K(473 K,  15 atm)

  Bischofite       -0.98      1.52    2.50  MgCl2:6H2O
  Brucite          -9.14    -18.71   -9.57  Mg(OH)2
  H2O(g)            0.49     -0.66   -1.16  H2O
  Halite           -0.00      1.19    1.19  NaCl
  MgCl2_2H2O       -1.19      4.17    5.36  MgCl2:2H2O
  MgCl2_4H2O       -0.60      2.84    3.44  MgCl2:4H2O

**For a gas, SI = log10(fugacity). Fugacity = pressure * phi / 1 atm.
  For ideal gases, phi = 1.

Reaction step 12.

Using solution 1.	
Using pure phase assemblage 1.	
Using reaction 1.	

Reaction 1.	

	  1.000e+00 moles of the following reaction have been added:

	                 Relative
	Reactant            moles

	MgCl2                1.00000

	                 Relative
	Element             moles
	Cl                   2.00000
	Mg                   1.00000

-------------------------------Phase assemblage--------------------------------

                                                      Moles in assemblage
Phase               SI  log IAP  log K(T, P)   Initial       Final       Delta

Halite            0.00     1.19      1.19    9.885e+00   9.916e+00   3.188e-02
MgCl2_2H2O       -0.84     4.52      5.36    0.000e+00           0   0.000e+00

-----------------------------Solution composition------------------------------

	Elements           Molality       Moles

	Cl                2.208e+01   2.208e+01
	Mg                1.100e+01   1.100e+01
	Na                8.353e-02   8.353e-02

----------------------------Description of solution----------------------------

                                       pH  =  -0.551      Charge balance
                                       pe  =   4.000      Adjusted to redox equilibrium
      Specific Conductance (µS/cm, 200°C)  = 296828
                          Density (g/cm³)  =   1.38360
                               Volume (L)  =   1.48324
                        Viscosity (mPa s)  =   4.19133
                        Activity of water  =   0.169
                 Ionic strength (mol/kgw)  =   3.308e+01
                       Mass of water (kg)  =   1.000e+00
                 Total alkalinity (eq/kg)  =   8.564e-12
                         Temperature (°C)  = 200.00
                           Pressure (atm)  = 15.38
                  Electrical balance (eq)  =  -1.519e-07
 Percent error, 100*(Cat-|An|)/(Cat+|An|)  =  -0.00
                               Iterations  =  13
                         Gamma iterations  =   5
                      Osmotic coefficient  =   2.97130
                         Density of water  =   0.86467
                                  Total H  = 1.110124e+02
                                  Total O  = 5.550622e+01

----------------------------Distribution of species----------------------------

                                                    MacInnes  MacInnes
                                MacInnes       Log       Log       Log    mole V
   Species          Molality    Activity  Molality  Activity     Gamma   cm³/mol

   H+              9.630e-06   3.559e+00    -5.016     0.551     5.568      0.00
   OH-             2.968e-08   2.256e-13    -7.528   -12.647    -5.119     53.38
   H2O             5.551e+01   1.694e-01     1.744    -0.771     0.000     20.84
Cl            2.208e+01
   Cl-             2.208e+01   7.713e-01     1.344    -0.113    -1.457     32.72
Mg            1.100e+01
   Mg+2            1.100e+01   1.000e+03     1.041     6.290     5.249    -36.00
   MgOH+           9.600e-06   2.171e-03    -5.018    -2.663     2.354     (0)  
Na            8.353e-02
   Na+             8.353e-02   2.015e+01    -1.078     1.304     2.382      2.44

------------------------------Saturation indices-------------------------------

  Phase               SI** log IAP   log K(473 K,  15 atm)

  Bischofite       -1.06      1.44    2.50  MgCl2:6H2O
  Brucite          -9.43    -19.00   -9.57  Mg(OH)2
  H2O(g)            0.39     -0.77   -1.16  H2O
  Halite            0.00      1.19    1.19  NaCl
  MgCl2_2H2O       -0.84      4.52    5.36  MgCl2:2H2O
  MgCl2_4H2O       -0.46      2.98    3.44  MgCl2:4H2O

**For a gas, SI = log10(fugacity). Fugacity = pressure * phi / 1 atm.
  For ideal gases, phi = 1.

Reaction step 13.

Using solution 1.	
Using pure phase assemblage 1.	
Using reaction 1.	

Reaction 1.	

	  1.000e+00 moles of the following reaction have been added:

	                 Relative
	Reactant            moles

	MgCl2                1.00000

	                 Relative
	Element             moles
	Cl                   2.00000
	Mg                   1.00000

-------------------------------Phase assemblage--------------------------------

                                                      Moles in assemblage
Phase               SI  log IAP  log K(T, P)   Initial       Final       Delta

Halite            0.00     1.19      1.19    9.916e+00   9.936e+00   1.914e-02
MgCl2_2H2O       -0.52     4.84      5.36    0.000e+00           0   0.000e+00

-----------------------------Solution composition------------------------------

	Elements           Molality       Moles

	Cl                2.406e+01   2.406e+01
	Mg                1.200e+01   1.200e+01
	Na                6.439e-02   6.439e-02

----------------------------Description of solution----------------------------

                                       pH  =  -1.104      Charge balance
                                       pe  =   4.000      Adjusted to redox equilibrium
      Specific Conductance (µS/cm, 200°C)  = 245163
                          Density (g/cm³)  =   1.40193
                               Volume (L)  =   1.53096
                        Viscosity (mPa s)  =   5.51075
                        Activity of water  =   0.131
                 Ionic strength (mol/kgw)  =   3.606e+01
                       Mass of water (kg)  =   1.000e+00
                 Total alkalinity (eq/kg)  =   8.576e-12
                         Temperature (°C)  = 200.00
                           Pressure (atm)  = 15.38
                  Electrical balance (eq)  =  -1.525e-07
 Percent error, 100*(Cat-|An|)/(Cat+|An|)  =  -0.00
                               Iterations  =  11
                         Gamma iterations  =   5
                      Osmotic coefficient  =   3.12394
                         Density of water  =   0.86467
                                  Total H  = 1.110124e+02
                                  Total O  = 5.550622e+01

----------------------------Distribution of species----------------------------

                                                    MacInnes  MacInnes
                                MacInnes       Log       Log       Log    mole V
   Species          Molality    Activity  Molality  Activity     Gamma   cm³/mol

   H+              4.435e-06   1.270e+01    -5.353     1.104     6.457      0.00
   OH-             2.269e-08   4.877e-14    -7.644   -13.312    -5.668     58.55
   H2O             5.551e+01   1.309e-01     1.744    -0.883     0.000     20.84
Cl            2.406e+01
   Cl-             2.406e+01   4.250e-01     1.381    -0.372    -1.753     33.90
Mg            1.200e+01
   Mg+2            1.200e+01   1.000e+03     1.079     7.348     6.269    -36.79
   MgOH+           4.412e-06   5.369e-03    -5.355    -2.270     3.085     (0)  
Na            6.439e-02
   Na+             6.439e-02   3.655e+01    -1.191     1.563     2.754      2.35

------------------------------Saturation indices-------------------------------

  Phase               SI** log IAP   log K(473 K,  15 atm)

  Bischofite       -1.19      1.31    2.49  MgCl2:6H2O
  Brucite          -9.70    -19.28   -9.57  Mg(OH)2
  H2O(g)            0.27     -0.88   -1.16  H2O
  Halite            0.00      1.19    1.19  NaCl
  MgCl2_2H2O       -0.52      4.84    5.36  MgCl2:2H2O
  MgCl2_4H2O       -0.36      3.07    3.44  MgCl2:4H2O

**For a gas, SI = log10(fugacity). Fugacity = pressure * phi / 1 atm.
  For ideal gases, phi = 1.

Reaction step 14.

Using solution 1.	
Using pure phase assemblage 1.	
Using reaction 1.	

Reaction 1.	

	  1.000e+00 moles of the following reaction have been added:

	                 Relative
	Reactant            moles

	MgCl2                1.00000

	                 Relative
	Element             moles
	Cl                   2.00000
	Mg                   1.00000

-------------------------------Phase assemblage--------------------------------

                                                      Moles in assemblage
Phase               SI  log IAP  log K(T, P)   Initial       Final       Delta

Halite            0.00     1.19      1.19    9.936e+00   9.947e+00   1.147e-02
MgCl2_2H2O       -0.24     5.12      5.36    0.000e+00           0   0.000e+00

-----------------------------Solution composition------------------------------

	Elements           Molality       Moles

	Cl                2.605e+01   2.605e+01
	Mg                1.300e+01   1.300e+01
	Na                5.292e-02   5.292e-02

----------------------------Description of solution----------------------------

                                       pH  =  -1.668      Charge balance
                                       pe  =   4.000      Adjusted to redox equilibrium
      Specific Conductance (µS/cm, 200°C)  = 203605
                          Density (g/cm³)  =   1.41824
                               Volume (L)  =   1.58001
                        Viscosity (mPa s)  =   7.14457
                        Activity of water  =   0.101
                 Ionic strength (mol/kgw)  =   3.905e+01
                       Mass of water (kg)  =   1.000e+00
                 Total alkalinity (eq/kg)  =   8.581e-12
                         Temperature (°C)  = 200.00
                           Pressure (atm)  = 15.38
                  Electrical balance (eq)  =  -1.534e-07
 Percent error, 100*(Cat-|An|)/(Cat+|An|)  =  -0.00
                               Iterations  =  11
                         Gamma iterations  =   5
                      Osmotic coefficient  =   3.25982
                         Density of water  =   0.86467
                                  Total H  = 1.110124e+02
                                  Total O  = 5.550622e+01

----------------------------Distribution of species----------------------------

                                                    MacInnes  MacInnes
                                MacInnes       Log       Log       Log    mole V
   Species          Molality    Activity  Molality  Activity     Gamma   cm³/mol

   H+              1.853e-06   4.660e+01    -5.732     1.668     7.401      0.00
   OH-             1.816e-08   1.019e-14    -7.741   -13.992    -6.251     63.66
   H2O             5.551e+01   1.006e-01     1.744    -0.997     0.000     20.84
Cl            2.605e+01
   Cl-             2.605e+01   2.126e-01     1.416    -0.673    -2.088     35.01
Mg            1.300e+01
   Mg+2            1.300e+01   1.000e+03     1.114     8.457     7.343    -37.59
   MgOH+           1.835e-06   1.444e-02    -5.736    -1.840     3.896     (0)  
Na            5.292e-02
   Na+             5.292e-02   7.305e+01    -1.276     1.864     3.140      2.27

------------------------------Saturation indices-------------------------------

  Phase               SI** log IAP   log K(473 K,  15 atm)

  Bischofite       -1.37      1.13    2.49  MgCl2:6H2O
  Brucite          -9.95    -19.53   -9.58  Mg(OH)2
  H2O(g)            0.16     -1.00   -1.16  H2O
  Halite            0.00      1.19    1.19  NaCl
  MgCl2_2H2O       -0.24      5.12    5.36  MgCl2:2H2O
  MgCl2_4H2O       -0.31      3.12    3.44  MgCl2:4H2O

**For a gas, SI = log10(fugacity). Fugacity = pressure * phi / 1 atm.
  For ideal gases, phi = 1.

Reaction step 15.

Using solution 1.	
Using pure phase assemblage 1.	
Using reaction 1.	

Reaction 1.	

	  1.000e+00 moles of the following reaction have been added:

	                 Relative
	Reactant            moles

	MgCl2                1.00000

	                 Relative
	Element             moles
	Cl                   2.00000
	Mg                   1.00000

-------------------------------Phase assemblage--------------------------------

                                                      Moles in assemblage
Phase               SI  log IAP  log K(T, P)   Initial       Final       Delta

Halite            0.00     1.19      1.19    9.947e+00   9.954e+00   6.532e-03
MgCl2_2H2O       -0.00     5.36      5.36    0.000e+00           0   0.000e+00

-----------------------------Solution composition------------------------------

	Elements           Molality       Moles

	Cl                2.805e+01   2.805e+01
	Mg                1.400e+01   1.400e+01
	Na                4.638e-02   4.638e-02

----------------------------Description of solution----------------------------

                                       pH  =  -2.246      Charge balance
                                       pe  =   4.000      Adjusted to redox equilibrium
      Specific Conductance (µS/cm, 200°C)  = 170154
                          Density (g/cm³)  =   1.43285
                               Volume (L)  =   1.63008
                        Viscosity (mPa s)  =   9.13755
                        Activity of water  =   0.077
                 Ionic strength (mol/kgw)  =   4.205e+01
                       Mass of water (kg)  =   1.000e+00
                 Total alkalinity (eq/kg)  =   8.586e-12
                         Temperature (°C)  = 200.00
                           Pressure (atm)  = 15.38
                  Electrical balance (eq)  =  -1.516e-07
 Percent error, 100*(Cat-|An|)/(Cat+|An|)  =  -0.00
                               Iterations  =  16
                         Gamma iterations  =   6
                      Osmotic coefficient  =   3.37871
                         Density of water  =   0.86467
                                  Total H  = 1.110124e+02
                                  Total O  = 5.550622e+01

----------------------------Distribution of species----------------------------

                                                    MacInnes  MacInnes
                                MacInnes       Log       Log       Log    mole V
   Species          Molality    Activity  Molality  Activity     Gamma   cm³/mol

   H+              7.052e-07   1.763e+02    -6.152     2.246     8.398      0.00
   OH-             1.524e-08   2.062e-15    -7.817   -14.686    -6.869     68.71
   H2O             5.551e+01   7.714e-02     1.744    -1.113     0.000     20.84
Cl            2.805e+01
   Cl-             2.805e+01   9.654e-02     1.448    -1.015    -2.463     36.05
Mg            1.400e+01
   Mg+2            1.400e+01   1.000e+03     1.146     9.616     8.470    -38.39
   MgOH+           6.899e-07   4.223e-02    -6.161    -1.374     4.787     (0)  
Na            4.638e-02
   Na+             4.638e-02   1.608e+02    -1.334     2.206     3.540      2.18

------------------------------Saturation indices-------------------------------

  Phase               SI** log IAP   log K(473 K,  15 atm)

  Bischofite       -1.59      0.91    2.49  MgCl2:6H2O
  Brucite         -10.18    -19.76   -9.58  Mg(OH)2
  H2O(g)            0.04     -1.11   -1.16  H2O
  Halite            0.00      1.19    1.19  NaCl
  MgCl2_2H2O       -0.00      5.36    5.36  MgCl2:2H2O
  MgCl2_4H2O       -0.30      3.13    3.44  MgCl2:4H2O

**For a gas, SI = log10(fugacity). Fugacity = pressure * phi / 1 atm.
  For ideal gases, phi = 1.

Reaction step 16.

Using solution 1.	
Using pure phase assemblage 1.	
Using reaction 1.	

Reaction 1.	

	  1.000e+00 moles of the following reaction have been added:

	                 Relative
	Reactant            moles

	MgCl2                1.00000

	                 Relative
	Element             moles
	Cl                   2.00000
	Mg                   1.00000

-------------------------------Phase assemblage--------------------------------

                                                      Moles in assemblage
Phase               SI  log IAP  log K(T, P)   Initial       Final       Delta

Halite            0.00     1.19      1.19    9.954e+00   9.957e+00   3.377e-03
MgCl2_2H2O        0.00     5.36      5.36    0.000e+00   2.011e+00   2.011e+00

-----------------------------Solution composition------------------------------

	Elements           Molality       Moles

	Cl                2.805e+01   2.602e+01
	Mg                1.400e+01   1.299e+01
	Na                4.637e-02   4.301e-02

----------------------------Description of solution----------------------------

                                       pH  =  -2.248      Charge balance
                                       pe  =   4.000      Adjusted to redox equilibrium
      Specific Conductance (µS/cm, 200°C)  = 170042
                          Density (g/cm³)  =   1.43290
                               Volume (L)  =   1.51214
                        Viscosity (mPa s)  =   9.14573
                        Activity of water  =   0.077
                 Ionic strength (mol/kgw)  =   4.206e+01
                       Mass of water (kg)  =   9.275e-01
                 Total alkalinity (eq/kg)  =   9.256e-12
                         Temperature (°C)  = 200.00
                           Pressure (atm)  = 15.38
                  Electrical balance (eq)  =  -1.517e-07
 Percent error, 100*(Cat-|An|)/(Cat+|An|)  =  -0.00
                               Iterations  =   9
                         Gamma iterations  =   3
                      Osmotic coefficient  =   3.37913
                         Density of water  =   0.86467
                                  Total H  = 1.029686e+02
                                  Total O  = 5.148431e+01

----------------------------Distribution of species----------------------------

                                                    MacInnes  MacInnes
                                MacInnes       Log       Log       Log    mole V
   Species          Molality    Activity  Molality  Activity     Gamma   cm³/mol

   H+              7.025e-07   1.772e+02    -6.153     2.248     8.402      0.00
   OH-             1.523e-08   2.050e-15    -7.817   -14.688    -6.871     68.73
   H2O             5.551e+01   7.706e-02     1.744    -1.113     0.000     20.84
Cl            2.805e+01
   Cl-             2.805e+01   9.623e-02     1.448    -1.017    -2.465     36.05
Mg            1.400e+01
   Mg+2            1.400e+01   1.000e+03     1.146     9.621     8.474    -38.40
   MgOH+           6.873e-07   4.241e-02    -6.163    -1.373     4.790     (0)  
Na            4.637e-02
   Na+             4.637e-02   1.613e+02    -1.334     2.208     3.541      2.18

------------------------------Saturation indices-------------------------------

  Phase               SI** log IAP   log K(473 K,  15 atm)

  Bischofite       -1.59      0.91    2.49  MgCl2:6H2O
  Brucite         -10.18    -19.76   -9.58  Mg(OH)2
  H2O(g)            0.04     -1.11   -1.16  H2O
  Halite            0.00      1.19    1.19  NaCl
  MgCl2_2H2O        0.00      5.36    5.36  MgCl2:2H2O
  MgCl2_4H2O       -0.30      3.13    3.44  MgCl2:4H2O

**For a gas, SI = log10(fugacity). Fugacity = pressure * phi / 1 atm.
  For ideal gases, phi = 1.

------------------
End of simulation.
------------------

------------------------------------
Reading input data for simulation 4.
------------------------------------

