WARNING: Database file from DATABASE keyword is used; command line argument ignored.
   Input file: NaNH4K_ClBrSO4
  Output file: NaNH4K_ClBrSO4.out
Database file: ../database/Amm.dat

------------------
Reading data base.
------------------

	SOLUTION_MASTER_SPECIES
	SOLUTION_SPECIES
	PHASES
	GAS_BINARY_PARAMETERS
	EXCHANGE_MASTER_SPECIES
	EXCHANGE_SPECIES
	SURFACE_MASTER_SPECIES
	SURFACE_SPECIES
	MEAN_GAMMAS
	RATES
	END
------------------------------------
Reading input data for simulation 1.
------------------------------------

	DATABASE ../database/Amm.dat
	SELECTED_OUTPUT 101
	    file                NaNH4K_ClBrSO4_101.sel
	USER_PUNCH 101
	    headings Mu SC Viscosity
	    start
	10 PUNCH STR_F$(MU, 20, 12)
	20 PUNCH STR_F$(SC, 20, 10)
	30 PUNCH STR_F$(VISCOS, 20, 10)
	    end
	SOLUTION_SPREAD
	units mol/kgw
	number	Na	K	Amm	Cl	Br	S(6)	pH
	1 	0.5	0.5		1			7 charge
	2 	1.0	1.0		2			7 charge
	3 	1.5	1.5		3			7 charge
	4 	2.0	2.0		4			7 charge
	5 	2.5	2.5		5			7 charge
	6 	0.5	2.5		3			7 charge
	7 	0.5	0.5		0.5	0.5		7 charge
	8 	1.0	1.0		1.0	1.0		7 charge
	9 	1.5	1.5		1.5	1.5		7 charge
	10	2.0	2.0		2.0	2.0		7 charge
	11	2.5	0.5		2.5	0.5		7 charge
	12	0.5	2.5		0.5	2.5		7 charge
	13	1  		1			1	7 charge
	14	1		2			1.5	7 charge
	15	1.5		3			2.25	7 charge
	16	2.0		4			3	7 charge
	17	1		5			3	7 charge
	18	1		4			2.5 	7 charge
	19		1	1			1	7 charge
	20		1.5	1.5			1.5	7 charge
	21		2	2			2	7 charge
	22		1	1.5			1.25	7 charge
	23		1.5	1			1.25	7 charge
	24		1	2			1.5	7 charge
	25	0.5	0.50	1	0.5	0.50	0.5	7 charge
	26	1.0	1.00	2	1.0	1.00	1.0	7 charge
	27	1.5	1.50	3	1.5	1.50	1.5	7 charge
	28	1.0	0.75	1	1.0	0.75	0.5	7 charge
	29	0.5	1.00	1	0.5	1.00	0.5	7 charge
	30	0.5	1.00	3	0.5	1.00	1.5	7 charge
	USER_GRAPH 1
	-chart_title "Viscosities"
	-headings NaKCl KBr-NaCl (NH4-Na)2SO4 (NH4)2SO4-KCl (NH4)2SO4-NaCl-KBr
	-axis_titles "viscosity / (mPa·s)" calculated
	-axis_scale x_axis 0.8 2.2
	-axis_scale y_axis 0.8 2.2
	-initial_solutions true
	10 DATA 0.9268, 0.9795, 1.0472, 1.1289, 1.2001, 0.9849, 0.9146, 0.9510, 1.0070, 1.0924, 1.1394, 0.9039, 1.2204, 1.3293, 1.6333, 2.0111, 1.7838, 1.6206, 0.9841, 1.0339, 1.0808, 1.0344, 0.9817, 1.0874,  1.0242, 1.1821, 1.3851, 1.0708, 1.0134, 1.2479
	20 erase vs : dim vs(50) : restore 10 : for i = 1 to cell_no : read vs(i) : next i
	30 if cell_no < 7                    then plot_xy vs(cell_no ), viscos , line_width = 0 else plot_xy vs(0), vs(0)
	31 if cell_no >= 7 and cell_no < 13  then plot_xy vs(cell_no ), viscos , line_width = 0, color = Green else plot_xy vs(0), vs(0) 
	32 if cell_no >= 13 and cell_no < 19 then plot_xy vs(cell_no ), viscos , line_width = 0, color = Blue else plot_xy vs(0), vs(0) 
	33 if cell_no >= 19 and cell_no < 25 then plot_xy vs(cell_no ), viscos , line_width = 0, color = Orange else plot_xy vs(0), vs(0) 
	34 if cell_no >= 25 and cell_no < 31 then plot_xy vs(cell_no ), viscos , line_width = 0, color = Aqua else plot_xy vs(0), vs(0) 
	40 if cell_no > 2 then end 
	50 if cell_no = 1 then xy = 0.89 else xy = 2.02
	60 plot_xy xy, xy, symbol = None, color = Black 
	-end 
	USER_GRAPH 2
	-chart_title "Densities"
	-headings NaKCl KBr-NaCl (NH4-Na)2SO4 (NH4)2SO4-KCl (NH4)2SO4-NaCl-KBr
	-axis_titles "density / (kg/L)" calculated
	-axis_scale x_axis 1.0 1.25
	-axis_scale y_axis 1.0 1.25
	-initial_solutions true
	10 DATA 1.0419, 1.0774, 1.1125, 1.1450, 1.1761, 1.1177, 1.0574, 1.1125, 1.1637, 1.2113, 1.1255, 1.1902, 1.0885, 1.1157, 1.1594, 1.2046, 1.1821, 1.1624, 1.0537, 1.0783, 1.1010, 1.0692, 1.0636, 1.0829,  1.0753, 1.1385, 1.1943, 1.1018, 1.0976, 1.1489
	20 erase vs : dim vs(50) : restore 10 : for i = 1 to cell_no : read vs(i) : next i
	30 if cell_no < 7                    then plot_xy vs(cell_no ), rho , line_width = 0 else plot_xy vs(0), vs(0)
	31 if cell_no >= 7 and cell_no < 13  then plot_xy vs(cell_no ), rho , line_width = 0, color = Green else plot_xy vs(0), vs(0) 
	32 if cell_no >= 13 and cell_no < 19 then plot_xy vs(cell_no ), rho , line_width = 0, color = Blue else plot_xy vs(0), vs(0) 
	33 if cell_no >= 19 and cell_no < 25 then plot_xy vs(cell_no ), rho , line_width = 0, color = Orange else plot_xy vs(0), vs(0) 
	34 if cell_no >= 25 and cell_no < 31 then plot_xy vs(cell_no ), rho , line_width = 0, color = Aqua else plot_xy vs(0), vs(0) 
	40 if cell_no > 2 then end 
	50 if cell_no = 1 then xy = 1.03 else xy = 1.22
	60 plot_xy xy, xy, symbol = None, color = Black 
-------------------------------------------
Beginning of initial solution calculations.
-------------------------------------------

Initial solution 1.	

-----------------------------Solution composition------------------------------

	Elements           Molality       Moles

	Cl                1.000e+00   1.000e+00
	K                 5.000e-01   5.000e-01
	Na                5.000e-01   5.000e-01

----------------------------Description of solution----------------------------

                                       pH  =   6.963      Charge balance
                                       pe  =   4.000    
      Specific Conductance (ÂµS/cm,  25Â°C)  = 97172
                          Density (g/cmÂł)  =   1.03879
                               Volume (L)  =   1.02668
                        Viscosity (mPa s)  =   0.92809
                        Activity of water  =   0.966
                 Ionic strength (mol/kgw)  =   1.000e+00
                       Mass of water (kg)  =   1.000e+00
                 Total alkalinity (eq/kg)  =  -4.890e-18
                         Temperature (Â°C)  =  25.00
                  Electrical balance (eq)  =   1.024e-14
 Percent error, 100*(Cat-|An|)/(Cat+|An|)  =   0.00
                               Iterations  =   4
                                  Total H  = 1.110124e+02
                                  Total O  = 5.550622e+01

----------------------------Distribution of species----------------------------

                                               Log       Log       Log    mole V
   Species          Molality    Activity  Molality  Activity     Gamma   cmÂł/mol

   OH-             1.551e-07   8.980e-08    -6.809    -7.047    -0.237     -2.10
   H+              1.465e-07   1.089e-07    -6.834    -6.963    -0.129      0.00
   H2O             5.551e+01   9.660e-01     1.744    -0.015     0.000     18.07
Cl            1.000e+00
   Cl-             1.000e+00   6.087e-01    -0.000    -0.216    -0.216     18.94
   HCl             8.568e-09   2.283e-08    -8.067    -7.642     0.426     20.36
H(0)          1.318e-25
   H2              6.590e-26   8.392e-26   -25.181   -25.076     0.105     14.99
K             5.000e-01
   K+              5.000e-01   2.997e-01    -0.301    -0.523    -0.222      9.84
Na            5.000e-01
   Na+             5.000e-01   3.656e-01    -0.301    -0.437    -0.136     -0.31
O(0)          0.000e+00
   O2              0.000e+00   0.000e+00   -42.340   -42.240     0.100     30.40

------------------------------Saturation indices-------------------------------

  Phase               SI** log IAP   log K(298 K,   1 atm)

  H2(g)           -21.98    -25.08   -3.10  H2
  H2O(g)           -1.52     -0.02    1.50  H2O
  Halite           -2.22     -0.65    1.57  NaCl
  O2(g)           -39.35    -42.24   -2.89  O2
  Sylvite          -1.64     -0.74    0.90  KCl

**For a gas, SI = log10(fugacity). Fugacity = pressure * phi / 1 atm.
  For ideal gases, phi = 1.

Initial solution 2.	

-----------------------------Solution composition------------------------------

	Elements           Molality       Moles

	Cl                2.000e+00   2.000e+00
	K                 1.000e+00   1.000e+00
	Na                1.000e+00   1.000e+00

----------------------------Description of solution----------------------------

                                       pH  =   6.954      Charge balance
                                       pe  =   4.000    
      Specific Conductance (ÂµS/cm,  25Â°C)  = 173903
                          Density (g/cmÂł)  =   1.07697
                               Volume (L)  =   1.05202
                        Viscosity (mPa s)  =   0.97615
                        Activity of water  =   0.932
                 Ionic strength (mol/kgw)  =   2.000e+00
                       Mass of water (kg)  =   1.000e+00
                 Total alkalinity (eq/kg)  =  -4.682e-13
                         Temperature (Â°C)  =  25.00
                  Electrical balance (eq)  =   8.654e-12
 Percent error, 100*(Cat-|An|)/(Cat+|An|)  =   0.00
                               Iterations  =   3 (7 overall)
                                  Total H  = 1.110124e+02
                                  Total O  = 5.550622e+01

----------------------------Distribution of species----------------------------

                                               Log       Log       Log    mole V
   Species          Molality    Activity  Molality  Activity     Gamma   cmÂł/mol

   OH-             1.596e-07   8.479e-08    -6.797    -7.072    -0.275     -0.62
   H+              1.533e-07   1.113e-07    -6.814    -6.954    -0.139      0.00
   H2O             5.551e+01   9.320e-01     1.744    -0.031     0.000     18.07
Cl            2.000e+00
   Cl-             2.000e+00   1.166e+00     0.301     0.067    -0.235     19.29
   HCl             6.293e-09   4.467e-08    -8.201    -7.350     0.851     20.36
H(0)          1.081e-25
   H2              5.403e-26   8.763e-26   -25.267   -25.057     0.210     14.99
K             1.000e+00
   K+              1.000e+00   5.693e-01     0.000    -0.245    -0.245     10.33
Na            1.000e+00
   Na+             1.000e+00   8.220e-01     0.000    -0.085    -0.085      0.14
O(0)          0.000e+00
   O2              0.000e+00   0.000e+00   -42.509   -42.309     0.200     30.40

------------------------------Saturation indices-------------------------------

  Phase               SI** log IAP   log K(298 K,   1 atm)

  H2(g)           -21.96    -25.06   -3.10  H2
  H2O(g)           -1.53     -0.03    1.50  H2O
  Halite           -1.59     -0.02    1.57  NaCl
  O2(g)           -39.42    -42.31   -2.89  O2
  Sylvite          -1.08     -0.18    0.90  KCl

**For a gas, SI = log10(fugacity). Fugacity = pressure * phi / 1 atm.
  For ideal gases, phi = 1.

Initial solution 3.	

-----------------------------Solution composition------------------------------

	Elements           Molality       Moles

	Cl                3.000e+00   3.000e+00
	K                 1.500e+00   1.500e+00
	Na                1.500e+00   1.500e+00

----------------------------Description of solution----------------------------

                                       pH  =   6.950      Charge balance
                                       pe  =   4.000    
      Specific Conductance (ÂµS/cm,  25Â°C)  = 235671
                          Density (g/cmÂł)  =   1.11216
                               Volume (L)  =   1.07853
                        Viscosity (mPa s)  =   1.03752
                        Activity of water  =   0.898
                 Ionic strength (mol/kgw)  =   3.000e+00
                       Mass of water (kg)  =   1.000e+00
                 Total alkalinity (eq/kg)  =  -2.493e-12
                         Temperature (Â°C)  =  25.00
                  Electrical balance (eq)  =   8.358e-11
 Percent error, 100*(Cat-|An|)/(Cat+|An|)  =   0.00
                               Iterations  =   3 (10 overall)
                                  Total H  = 1.110124e+02
                                  Total O  = 5.550622e+01

----------------------------Distribution of species----------------------------

                                               Log       Log       Log    mole V
   Species          Molality    Activity  Molality  Activity     Gamma   cmÂł/mol

   OH-             1.599e-07   8.103e-08    -6.796    -7.091    -0.295      0.77
   H+              1.564e-07   1.122e-07    -6.806    -6.950    -0.144      0.00
   H2O             5.551e+01   8.980e-01     1.744    -0.047     0.000     18.07
Cl            3.000e+00
   Cl-             3.000e+00   1.738e+00     0.477     0.240    -0.237     19.55
   HCl             3.550e-09   6.714e-08    -8.450    -7.173     1.277     20.36
H(0)          8.626e-26
   H2              4.313e-26   8.908e-26   -25.365   -25.050     0.315     14.99
K             1.500e+00
   K+              1.500e+00   8.429e-01     0.176    -0.074    -0.250     10.80
Na            1.500e+00
   Na+             1.500e+00   1.433e+00     0.176     0.156    -0.020      0.48
O(0)          0.000e+00
   O2              0.000e+00   0.000e+00   -42.656   -42.356     0.300     30.40

------------------------------Saturation indices-------------------------------

  Phase               SI** log IAP   log K(298 K,   1 atm)

  H2(g)           -21.95    -25.05   -3.10  H2
  H2O(g)           -1.55     -0.05    1.50  H2O
  Halite           -1.17      0.40    1.57  NaCl
  O2(g)           -39.46    -42.36   -2.89  O2
  Sylvite          -0.73      0.17    0.90  KCl

**For a gas, SI = log10(fugacity). Fugacity = pressure * phi / 1 atm.
  For ideal gases, phi = 1.

Initial solution 4.	

-----------------------------Solution composition------------------------------

	Elements           Molality       Moles

	Cl                4.000e+00   4.000e+00
	K                 2.000e+00   2.000e+00
	Na                2.000e+00   2.000e+00

----------------------------Description of solution----------------------------

                                       pH  =   6.951      Charge balance
                                       pe  =   4.000    
      Specific Conductance (ÂµS/cm,  25Â°C)  = 284005
                          Density (g/cmÂł)  =   1.14464
                               Volume (L)  =   1.10602
                        Viscosity (mPa s)  =   1.11302
                        Activity of water  =   0.864
                 Ionic strength (mol/kgw)  =   4.000e+00
                       Mass of water (kg)  =   1.000e+00
                 Total alkalinity (eq/kg)  =   3.129e-16
                         Temperature (Â°C)  =  25.00
                  Electrical balance (eq)  =   2.708e-15
 Percent error, 100*(Cat-|An|)/(Cat+|An|)  =   0.00
                               Iterations  =   4 (14 overall)
                                  Total H  = 1.110124e+02
                                  Total O  = 5.550622e+01

----------------------------Distribution of species----------------------------

                                               Log       Log       Log    mole V
   Species          Molality    Activity  Molality  Activity     Gamma   cmÂł/mol

   OH-             1.591e-07   7.808e-08    -6.798    -7.107    -0.309      2.11
   H+              1.573e-07   1.120e-07    -6.803    -6.951    -0.148      0.00
   H2O             5.551e+01   8.640e-01     1.744    -0.063     0.000     18.07
Cl            4.000e+00
   Cl-             4.000e+00   2.337e+00     0.602     0.369    -0.233     19.76
   HCl             1.789e-09   9.018e-08    -8.747    -7.045     1.702     20.36
H(0)          6.753e-26
   H2              3.376e-26   8.881e-26   -25.472   -25.052     0.420     14.99
K             2.000e+00
   K+              2.000e+00   1.127e+00     0.301     0.052    -0.249     11.24
Na            2.000e+00
   Na+             2.000e+00   2.248e+00     0.301     0.352     0.051      0.77
O(0)          0.000e+00
   O2              0.000e+00   0.000e+00   -42.786   -42.386     0.400     30.40

------------------------------Saturation indices-------------------------------

  Phase               SI** log IAP   log K(298 K,   1 atm)

  H2(g)           -21.95    -25.05   -3.10  H2
  H2O(g)           -1.57     -0.06    1.50  H2O
  Halite           -0.85      0.72    1.57  NaCl
  O2(g)           -39.49    -42.39   -2.89  O2
  Sylvite          -0.48      0.42    0.90  KCl

**For a gas, SI = log10(fugacity). Fugacity = pressure * phi / 1 atm.
  For ideal gases, phi = 1.

Initial solution 5.	

-----------------------------Solution composition------------------------------

	Elements           Molality       Moles

	Cl                5.000e+00   5.000e+00
	K                 2.500e+00   2.500e+00
	Na                2.500e+00   2.500e+00

----------------------------Description of solution----------------------------

                                       pH  =   6.954      Charge balance
                                       pe  =   4.000    
      Specific Conductance (ÂµS/cm,  25Â°C)  = 320419
                          Density (g/cmÂł)  =   1.17460
                               Volume (L)  =   1.13442
                        Viscosity (mPa s)  =   1.20312
                        Activity of water  =   0.830
                 Ionic strength (mol/kgw)  =   5.000e+00
                       Mass of water (kg)  =   1.000e+00
                 Total alkalinity (eq/kg)  =  -5.775e-16
                         Temperature (Â°C)  =  25.00
                  Electrical balance (eq)  =   1.548e-10
 Percent error, 100*(Cat-|An|)/(Cat+|An|)  =   0.00
                               Iterations  =   4 (18 overall)
                                  Total H  = 1.110124e+02
                                  Total O  = 5.550622e+01

----------------------------Distribution of species----------------------------

                                               Log       Log       Log    mole V
   Species          Molality    Activity  Molality  Activity     Gamma   cmÂł/mol

   OH-             1.577e-07   7.561e-08    -6.802    -7.121    -0.319      3.42
   H+              1.569e-07   1.111e-07    -6.804    -6.954    -0.150      0.00
   H2O             5.551e+01   8.300e-01     1.744    -0.081     0.000     18.07
Cl            5.000e+00
   Cl-             5.000e+00   2.971e+00     0.699     0.473    -0.226     19.94
   HCl             8.469e-10   1.137e-07    -9.072    -6.944     2.128     20.36
H(0)          5.219e-26
   H2              2.609e-26   8.740e-26   -25.583   -25.058     0.525     14.99
K             2.500e+00
   K+              2.500e+00   1.424e+00     0.398     0.154    -0.244     11.69
Na            2.500e+00
   Na+             2.500e+00   3.331e+00     0.398     0.523     0.125      1.02
O(0)          0.000e+00
   O2              0.000e+00   0.000e+00   -42.907   -42.407     0.500     30.40

------------------------------Saturation indices-------------------------------

  Phase               SI** log IAP   log K(298 K,   1 atm)

  H2(g)           -21.96    -25.06   -3.10  H2
  H2O(g)           -1.58     -0.08    1.50  H2O
  Halite           -0.57      1.00    1.57  NaCl
  O2(g)           -39.52    -42.41   -2.89  O2
  Sylvite          -0.27      0.63    0.90  KCl

**For a gas, SI = log10(fugacity). Fugacity = pressure * phi / 1 atm.
  For ideal gases, phi = 1.

Initial solution 6.	

-----------------------------Solution composition------------------------------

	Elements           Molality       Moles

	Cl                3.000e+00   3.000e+00
	K                 2.500e+00   2.500e+00
	Na                5.000e-01   5.000e-01

----------------------------Description of solution----------------------------

                                       pH  =   6.950      Charge balance
                                       pe  =   4.000    
      Specific Conductance (ÂµS/cm,  25Â°C)  = 262783
                          Density (g/cmÂł)  =   1.11642
                               Volume (L)  =   1.08884
                        Viscosity (mPa s)  =   0.94931
                        Activity of water  =   0.898
                 Ionic strength (mol/kgw)  =   3.000e+00
                       Mass of water (kg)  =   1.000e+00
                 Total alkalinity (eq/kg)  =  -2.492e-12
                         Temperature (Â°C)  =  25.00
                  Electrical balance (eq)  =   2.523e-12
 Percent error, 100*(Cat-|An|)/(Cat+|An|)  =   0.00
                               Iterations  =   3 (21 overall)
                                  Total H  = 1.110124e+02
                                  Total O  = 5.550622e+01

----------------------------Distribution of species----------------------------

                                               Log       Log       Log    mole V
   Species          Molality    Activity  Molality  Activity     Gamma   cmÂł/mol

   OH-             1.599e-07   8.103e-08    -6.796    -7.091    -0.295      0.77
   H+              1.564e-07   1.122e-07    -6.806    -6.950    -0.144      0.00
   H2O             5.551e+01   8.980e-01     1.744    -0.047     0.000     18.07
Cl            3.000e+00
   Cl-             3.000e+00   1.738e+00     0.477     0.240    -0.237     19.55
   HCl             3.550e-09   6.714e-08    -8.450    -7.173     1.277     20.36
H(0)          8.626e-26
   H2              4.313e-26   8.908e-26   -25.365   -25.050     0.315     14.99
K             2.500e+00
   K+              2.500e+00   1.405e+00     0.398     0.148    -0.250     10.80
Na            5.000e-01
   Na+             5.000e-01   4.775e-01    -0.301    -0.321    -0.020      0.48
O(0)          0.000e+00
   O2              0.000e+00   0.000e+00   -42.656   -42.356     0.300     30.40

------------------------------Saturation indices-------------------------------

  Phase               SI** log IAP   log K(298 K,   1 atm)

  H2(g)           -21.95    -25.05   -3.10  H2
  H2O(g)           -1.55     -0.05    1.50  H2O
  Halite           -1.65     -0.08    1.57  NaCl
  O2(g)           -39.46    -42.36   -2.89  O2
  Sylvite          -0.51      0.39    0.90  KCl

**For a gas, SI = log10(fugacity). Fugacity = pressure * phi / 1 atm.
  For ideal gases, phi = 1.

Initial solution 7.	

-----------------------------Solution composition------------------------------

	Elements           Molality       Moles

	Br                5.000e-01   5.000e-01
	Cl                5.000e-01   5.000e-01
	K                 5.000e-01   5.000e-01
	Na                5.000e-01   5.000e-01

----------------------------Description of solution----------------------------

                                       pH  =   6.957      Charge balance
                                       pe  =   4.000    
      Specific Conductance (ÂµS/cm,  25Â°C)  = 98312
                          Density (g/cmÂł)  =   1.05713
                               Volume (L)  =   1.02989
                        Viscosity (mPa s)  =   0.91479
                        Activity of water  =   0.966
                 Ionic strength (mol/kgw)  =   1.000e+00
                       Mass of water (kg)  =   1.000e+00
                 Total alkalinity (eq/kg)  =  -1.914e-16
                         Temperature (Â°C)  =  25.00
                  Electrical balance (eq)  =   1.055e-14
 Percent error, 100*(Cat-|An|)/(Cat+|An|)  =   0.00
                               Iterations  =   4 (25 overall)
                                  Total H  = 1.110124e+02
                                  Total O  = 5.550622e+01

----------------------------Distribution of species----------------------------

                                               Log       Log       Log    mole V
   Species          Molality    Activity  Molality  Activity     Gamma   cmÂł/mol

   OH-             1.529e-07   8.855e-08    -6.816    -7.053    -0.237     -2.10
   H+              1.486e-07   1.104e-07    -6.828    -6.957    -0.129      0.00
   H2O             5.551e+01   9.660e-01     1.744    -0.015     0.000     18.07
Br            5.000e-01
   Br-             5.000e-01   3.070e-01    -0.301    -0.513    -0.212     25.37
Cl            5.000e-01
   Cl-             5.000e-01   3.043e-01    -0.301    -0.517    -0.216     18.94
   HCl             4.344e-09   1.158e-08    -8.362    -7.936     0.426     20.36
H(0)          1.355e-25
   H2              6.777e-26   8.631e-26   -25.169   -25.064     0.105     14.99
K             5.000e-01
   K+              5.000e-01   2.997e-01    -0.301    -0.523    -0.222      9.84
Na            5.000e-01
   Na+             5.000e-01   3.656e-01    -0.301    -0.437    -0.136     -0.31
O(0)          0.000e+00
   O2              0.000e+00   0.000e+00   -42.365   -42.265     0.100     30.40

------------------------------Saturation indices-------------------------------

  Phase               SI** log IAP   log K(298 K,   1 atm)

  H2(g)           -21.96    -25.06   -3.10  H2
  H2O(g)           -1.52     -0.02    1.50  H2O
  Halite           -2.52     -0.95    1.57  NaCl
  O2(g)           -39.37    -42.26   -2.89  O2
  Sylvite          -1.94     -1.04    0.90  KCl

**For a gas, SI = log10(fugacity). Fugacity = pressure * phi / 1 atm.
  For ideal gases, phi = 1.

Initial solution 8.	

-----------------------------Solution composition------------------------------

	Elements           Molality       Moles

	Br                1.000e+00   1.000e+00
	Cl                1.000e+00   1.000e+00
	K                 1.000e+00   1.000e+00
	Na                1.000e+00   1.000e+00

----------------------------Description of solution----------------------------

                                       pH  =   6.949      Charge balance
                                       pe  =   4.000    
      Specific Conductance (ÂµS/cm,  25Â°C)  = 175961
                          Density (g/cmÂł)  =   1.11249
                               Volume (L)  =   1.05839
                        Viscosity (mPa s)  =   0.95184
                        Activity of water  =   0.932
                 Ionic strength (mol/kgw)  =   2.000e+00
                       Mass of water (kg)  =   1.000e+00
                 Total alkalinity (eq/kg)  =  -4.635e-13
                         Temperature (Â°C)  =  25.00
                  Electrical balance (eq)  =  -1.684e-11
 Percent error, 100*(Cat-|An|)/(Cat+|An|)  =  -0.00
                               Iterations  =   3 (28 overall)
                                  Total H  = 1.110124e+02
                                  Total O  = 5.550622e+01

----------------------------Distribution of species----------------------------

                                               Log       Log       Log    mole V
   Species          Molality    Activity  Molality  Activity     Gamma   cmÂł/mol

   OH-             1.580e-07   8.395e-08    -6.801    -7.076    -0.275     -0.62
   H+              1.548e-07   1.124e-07    -6.810    -6.949    -0.139      0.00
   H2O             5.551e+01   9.320e-01     1.744    -0.031     0.000     18.07
Br            1.000e+00
   Br-             1.000e+00   6.147e-01     0.000    -0.211    -0.211     25.66
Cl            1.000e+00
   Cl-             1.000e+00   5.828e-01    -0.000    -0.235    -0.235     19.29
   HCl             3.178e-09   2.256e-08    -8.498    -7.647     0.851     20.36
H(0)          1.102e-25
   H2              5.512e-26   8.939e-26   -25.259   -25.049     0.210     14.99
K             1.000e+00
   K+              1.000e+00   5.693e-01     0.000    -0.245    -0.245     10.33
Na            1.000e+00
   Na+             1.000e+00   8.220e-01     0.000    -0.085    -0.085      0.14
O(0)          0.000e+00
   O2              0.000e+00   0.000e+00   -42.526   -42.326     0.200     30.40

------------------------------Saturation indices-------------------------------

  Phase               SI** log IAP   log K(298 K,   1 atm)

  H2(g)           -21.95    -25.05   -3.10  H2
  H2O(g)           -1.53     -0.03    1.50  H2O
  Halite           -1.89     -0.32    1.57  NaCl
  O2(g)           -39.43    -42.33   -2.89  O2
  Sylvite          -1.38     -0.48    0.90  KCl

**For a gas, SI = log10(fugacity). Fugacity = pressure * phi / 1 atm.
  For ideal gases, phi = 1.

Initial solution 9.	

-----------------------------Solution composition------------------------------

	Elements           Molality       Moles

	Br                1.500e+00   1.500e+00
	Cl                1.500e+00   1.500e+00
	K                 1.500e+00   1.500e+00
	Na                1.500e+00   1.500e+00

----------------------------Description of solution----------------------------

                                       pH  =   6.948      Charge balance
                                       pe  =   4.000    
      Specific Conductance (ÂµS/cm,  25Â°C)  = 238466
                          Density (g/cmÂł)  =   1.16378
                               Volume (L)  =   1.08798
                        Viscosity (mPa s)  =   1.00323
                        Activity of water  =   0.898
                 Ionic strength (mol/kgw)  =   3.000e+00
                       Mass of water (kg)  =   1.000e+00
                 Total alkalinity (eq/kg)  =  -2.478e-12
                         Temperature (Â°C)  =  25.00
                  Electrical balance (eq)  =   8.025e-11
 Percent error, 100*(Cat-|An|)/(Cat+|An|)  =   0.00
                               Iterations  =   3 (31 overall)
                                  Total H  = 1.110124e+02
                                  Total O  = 5.550622e+01

----------------------------Distribution of species----------------------------

                                               Log       Log       Log    mole V
   Species          Molality    Activity  Molality  Activity     Gamma   cmÂł/mol

   OH-             1.590e-07   8.058e-08    -6.798    -7.094    -0.295      0.77
   H+              1.573e-07   1.128e-07    -6.803    -6.948    -0.144      0.00
   H2O             5.551e+01   8.980e-01     1.744    -0.047     0.000     18.07
Br            1.500e+00
   Br-             1.500e+00   9.655e-01     0.176    -0.015    -0.191     25.85
Cl            1.500e+00
   Cl-             1.500e+00   8.688e-01     0.176    -0.061    -0.237     19.55
   HCl             1.785e-09   3.376e-08    -8.748    -7.472     1.277     20.36
H(0)          8.723e-26
   H2              4.361e-26   9.008e-26   -25.360   -25.045     0.315     14.99
K             1.500e+00
   K+              1.500e+00   8.429e-01     0.176    -0.074    -0.250     10.80
Na            1.500e+00
   Na+             1.500e+00   1.433e+00     0.176     0.156    -0.020      0.48
O(0)          0.000e+00
   O2              0.000e+00   0.000e+00   -42.665   -42.365     0.300     30.40

------------------------------Saturation indices-------------------------------

  Phase               SI** log IAP   log K(298 K,   1 atm)

  H2(g)           -21.95    -25.05   -3.10  H2
  H2O(g)           -1.55     -0.05    1.50  H2O
  Halite           -1.47      0.10    1.57  NaCl
  O2(g)           -39.47    -42.37   -2.89  O2
  Sylvite          -1.04     -0.14    0.90  KCl

**For a gas, SI = log10(fugacity). Fugacity = pressure * phi / 1 atm.
  For ideal gases, phi = 1.

Initial solution 10.	

-----------------------------Solution composition------------------------------

	Elements           Molality       Moles

	Br                2.000e+00   2.000e+00
	Cl                2.000e+00   2.000e+00
	K                 2.000e+00   2.000e+00
	Na                2.000e+00   2.000e+00

----------------------------Description of solution----------------------------

                                       pH  =   6.950      Charge balance
                                       pe  =   4.000    
      Specific Conductance (ÂµS/cm,  25Â°C)  = 287354
                          Density (g/cmÂł)  =   1.21134
                               Volume (L)  =   1.11851
                        Viscosity (mPa s)  =   1.06956
                        Activity of water  =   0.864
                 Ionic strength (mol/kgw)  =   4.000e+00
                       Mass of water (kg)  =   1.000e+00
                 Total alkalinity (eq/kg)  =  -3.144e-16
                         Temperature (Â°C)  =  25.00
                  Electrical balance (eq)  =   7.660e-13
 Percent error, 100*(Cat-|An|)/(Cat+|An|)  =   0.00
                               Iterations  =   4 (35 overall)
                                  Total H  = 1.110124e+02
                                  Total O  = 5.550622e+01

----------------------------Distribution of species----------------------------

                                               Log       Log       Log    mole V
   Species          Molality    Activity  Molality  Activity     Gamma   cmÂł/mol

   OH-             1.587e-07   7.786e-08    -6.800    -7.109    -0.309      2.11
   H+              1.578e-07   1.123e-07    -6.802    -6.950    -0.148      0.00
   H2O             5.551e+01   8.640e-01     1.744    -0.063     0.000     18.07
Br            2.000e+00
   Br-             2.000e+00   1.373e+00     0.301     0.138    -0.163     26.00
Cl            2.000e+00
   Cl-             2.000e+00   1.169e+00     0.301     0.068    -0.233     19.76
   HCl             8.972e-10   4.522e-08    -9.047    -7.345     1.702     20.36
H(0)          6.791e-26
   H2              3.395e-26   8.931e-26   -25.469   -25.049     0.420     14.99
K             2.000e+00
   K+              2.000e+00   1.127e+00     0.301     0.052    -0.249     11.24
Na            2.000e+00
   Na+             2.000e+00   2.248e+00     0.301     0.352     0.051      0.77
O(0)          0.000e+00
   O2              0.000e+00   0.000e+00   -42.791   -42.391     0.400     30.40

------------------------------Saturation indices-------------------------------

  Phase               SI** log IAP   log K(298 K,   1 atm)

  H2(g)           -21.95    -25.05   -3.10  H2
  H2O(g)           -1.57     -0.06    1.50  H2O
  Halite           -1.15      0.42    1.57  NaCl
  O2(g)           -39.50    -42.39   -2.89  O2
  Sylvite          -0.78      0.12    0.90  KCl

**For a gas, SI = log10(fugacity). Fugacity = pressure * phi / 1 atm.
  For ideal gases, phi = 1.

Initial solution 11.	

-----------------------------Solution composition------------------------------

	Elements           Molality       Moles

	Br                5.000e-01   5.000e-01
	Cl                2.500e+00   2.500e+00
	K                 5.000e-01   5.000e-01
	Na                2.500e+00   2.500e+00

----------------------------Description of solution----------------------------

                                       pH  =   6.949      Charge balance
                                       pe  =   4.000    
      Specific Conductance (ÂµS/cm,  25Â°C)  = 207073
                          Density (g/cmÂł)  =   1.12531
                               Volume (L)  =   1.07136
                        Viscosity (mPa s)  =   1.13051
                        Activity of water  =   0.898
                 Ionic strength (mol/kgw)  =   3.000e+00
                       Mass of water (kg)  =   1.000e+00
                 Total alkalinity (eq/kg)  =  -2.488e-12
                         Temperature (Â°C)  =  25.00
                  Electrical balance (eq)  =   1.485e-09
 Percent error, 100*(Cat-|An|)/(Cat+|An|)  =   0.00
                               Iterations  =   3 (38 overall)
                                  Total H  = 1.110124e+02
                                  Total O  = 5.550622e+01

----------------------------Distribution of species----------------------------

                                               Log       Log       Log    mole V
   Species          Molality    Activity  Molality  Activity     Gamma   cmÂł/mol

   OH-             1.596e-07   8.088e-08    -6.797    -7.092    -0.295      0.77
   H+              1.567e-07   1.124e-07    -6.805    -6.949    -0.144      0.00
   H2O             5.551e+01   8.980e-01     1.744    -0.047     0.000     18.07
Br            5.000e-01
   Br-             5.000e-01   3.218e-01    -0.301    -0.492    -0.191     25.85
Cl            2.500e+00
   Cl-             2.500e+00   1.448e+00     0.398     0.161    -0.237     19.55
   HCl             2.964e-09   5.605e-08    -8.528    -7.251     1.277     20.36
H(0)          8.658e-26
   H2              4.329e-26   8.941e-26   -25.364   -25.049     0.315     14.99
K             5.000e-01
   K+              5.000e-01   2.810e-01    -0.301    -0.551    -0.250     10.80
Na            2.500e+00
   Na+             2.500e+00   2.388e+00     0.398     0.378    -0.020      0.48
O(0)          0.000e+00
   O2              0.000e+00   0.000e+00   -42.659   -42.359     0.300     30.40

------------------------------Saturation indices-------------------------------

  Phase               SI** log IAP   log K(298 K,   1 atm)

  H2(g)           -21.95    -25.05   -3.10  H2
  H2O(g)           -1.55     -0.05    1.50  H2O
  Halite           -1.03      0.54    1.57  NaCl
  O2(g)           -39.47    -42.36   -2.89  O2
  Sylvite          -1.29     -0.39    0.90  KCl

**For a gas, SI = log10(fugacity). Fugacity = pressure * phi / 1 atm.
  For ideal gases, phi = 1.

Initial solution 12.	

-----------------------------Solution composition------------------------------

	Elements           Molality       Moles

	Br                2.500e+00   2.500e+00
	Cl                5.000e-01   5.000e-01
	K                 2.500e+00   2.500e+00
	Na                5.000e-01   5.000e-01

----------------------------Description of solution----------------------------

                                       pH  =   6.946      Charge balance
                                       pe  =   4.000    
      Specific Conductance (ÂµS/cm,  25Â°C)  = 264762
                          Density (g/cmÂł)  =   1.20110
                               Volume (L)  =   1.10460
                        Viscosity (mPa s)  =   0.89576
                        Activity of water  =   0.898
                 Ionic strength (mol/kgw)  =   3.000e+00
                       Mass of water (kg)  =   1.000e+00
                 Total alkalinity (eq/kg)  =  -2.469e-12
                         Temperature (Â°C)  =  25.00
                  Electrical balance (eq)  =   2.421e-12
 Percent error, 100*(Cat-|An|)/(Cat+|An|)  =   0.00
                               Iterations  =   3 (41 overall)
                                  Total H  = 1.110124e+02
                                  Total O  = 5.550622e+01

----------------------------Distribution of species----------------------------

                                               Log       Log       Log    mole V
   Species          Molality    Activity  Molality  Activity     Gamma   cmÂł/mol

   OH-             1.585e-07   8.028e-08    -6.800    -7.095    -0.295      0.77
   H+              1.579e-07   1.132e-07    -6.802    -6.946    -0.144      0.00
   H2O             5.551e+01   8.980e-01     1.744    -0.047     0.000     18.07
Br            2.500e+00
   Br-             2.500e+00   1.609e+00     0.398     0.207    -0.191     25.85
Cl            5.000e-01
   Cl-             5.000e-01   2.896e-01    -0.301    -0.538    -0.237     19.55
   HCl             5.972e-10   1.130e-08    -9.224    -7.947     1.277     20.36
H(0)          8.788e-26
   H2              4.394e-26   9.076e-26   -25.357   -25.042     0.315     14.99
K             2.500e+00
   K+              2.500e+00   1.405e+00     0.398     0.148    -0.250     10.80
Na            5.000e-01
   Na+             5.000e-01   4.775e-01    -0.301    -0.321    -0.020      0.48
O(0)          0.000e+00
   O2              0.000e+00   0.000e+00   -42.672   -42.372     0.300     30.40

------------------------------Saturation indices-------------------------------

  Phase               SI** log IAP   log K(298 K,   1 atm)

  H2(g)           -21.94    -25.04   -3.10  H2
  H2O(g)           -1.55     -0.05    1.50  H2O
  Halite           -2.43     -0.86    1.57  NaCl
  O2(g)           -39.48    -42.37   -2.89  O2
  Sylvite          -1.29     -0.39    0.90  KCl

**For a gas, SI = log10(fugacity). Fugacity = pressure * phi / 1 atm.
  For ideal gases, phi = 1.

Initial solution 13.	

-----------------------------Solution composition------------------------------

	Elements           Molality       Moles

	Amm               1.000e+00   1.000e+00
	Na                1.000e+00   1.000e+00
	S(6)              1.000e+00   1.000e+00

----------------------------Description of solution----------------------------

                                       pH  =   5.358      Charge balance
                                       pe  =   4.000    
      Specific Conductance (ÂµS/cm,  25Â°C)  = 109524
                          Density (g/cmÂł)  =   1.08841
                               Volume (L)  =   1.04473
                        Viscosity (mPa s)  =   1.20855
                        Activity of water  =   0.961
                 Ionic strength (mol/kgw)  =   1.618e+00
                       Mass of water (kg)  =   1.000e+00
                 Total alkalinity (eq/kg)  =  -1.155e-16
                         Temperature (Â°C)  =  25.00
                  Electrical balance (eq)  =  -4.663e-14
 Percent error, 100*(Cat-|An|)/(Cat+|An|)  =  -0.00
                               Iterations  =   7 (48 overall)
                                  Total H  = 1.120124e+02
                                  Total O  = 5.950622e+01

----------------------------Distribution of species----------------------------

                                               Log       Log       Log    mole V
   Species          Molality    Activity  Molality  Activity     Gamma   cmÂł/mol

   H+              6.001e-06   4.385e-06    -5.222    -5.358    -0.136      0.00
   OH-             4.068e-09   2.218e-09    -8.391    -8.654    -0.263     -1.17
   H2O             5.551e+01   9.607e-01     1.744    -0.017     0.000     18.07
Amm           1.000e+00
   AmmH+           5.543e-01   2.669e-01    -0.256    -0.574    -0.317     18.71
   AmmHSO4-        4.457e-01   2.316e-01    -0.351    -0.635    -0.284     42.88
   Amm             2.390e-05   3.469e-05    -4.622    -4.460     0.162     24.42
H(0)          1.841e-22
   H2              9.206e-23   1.361e-22   -22.036   -21.866     0.170     14.99
Na            1.000e+00
   Na+             7.547e-01   5.896e-01    -0.122    -0.229    -0.107     -0.01
   NaSO4-          2.452e-01   1.993e-01    -0.610    -0.700    -0.090     24.91
   Na2SO4          4.121e-05   5.731e-05    -4.385    -4.242     0.143     47.96
O(0)          0.000e+00
   O2              0.000e+00   0.000e+00   -48.827   -48.665     0.162     30.40
S(6)          1.000e+00
   AmmHSO4-        4.457e-01   2.316e-01    -0.351    -0.635    -0.284     42.88
   SO4-2           3.090e-01   3.848e-02    -0.510    -1.415    -0.905     19.99
   NaSO4-          2.452e-01   1.993e-01    -0.610    -0.700    -0.090     24.91
   Na2SO4          4.121e-05   5.731e-05    -4.385    -4.242     0.143     47.96
   HSO4-           1.790e-05   1.641e-05    -4.747    -4.785    -0.038     41.31

------------------------------Saturation indices-------------------------------

  Phase               SI** log IAP   log K(298 K,   1 atm)

  Amm(g)           -6.26     -4.46    1.80  Amm
  H2(g)           -18.77    -21.87   -3.10  H2
  H2O(g)           -1.52     -0.02    1.50  H2O
  Mirabilite       -1.34     -2.05   -0.71  Na2SO4:10H2O
  O2(g)           -45.77    -48.67   -2.89  O2
  Thenardite       -2.52     -1.87    0.65  Na2SO4

**For a gas, SI = log10(fugacity). Fugacity = pressure * phi / 1 atm.
  For ideal gases, phi = 1.

Initial solution 14.	

-----------------------------Solution composition------------------------------

	Elements           Molality       Moles

	Amm               2.000e+00   2.000e+00
	Na                1.000e+00   1.000e+00
	S(6)              1.500e+00   1.500e+00

----------------------------Description of solution----------------------------

                                       pH  =   5.225      Charge balance
                                       pe  =   4.000    
      Specific Conductance (ÂµS/cm,  25Â°C)  = 150526
                          Density (g/cmÂł)  =   1.11610
                               Volume (L)  =   1.07801
                        Viscosity (mPa s)  =   1.33305
                        Activity of water  =   0.943
                 Ionic strength (mol/kgw)  =   2.203e+00
                       Mass of water (kg)  =   1.000e+00
                 Total alkalinity (eq/kg)  =   1.463e-14
                         Temperature (Â°C)  =  25.00
                  Electrical balance (eq)  =   1.462e-10
 Percent error, 100*(Cat-|An|)/(Cat+|An|)  =   0.00
                               Iterations  =   6 (54 overall)
                                  Total H  = 1.130124e+02
                                  Total O  = 6.150622e+01

----------------------------Distribution of species----------------------------

                                               Log       Log       Log    mole V
   Species          Molality    Activity  Molality  Activity     Gamma   cmÂł/mol

   H+              8.239e-06   5.962e-06    -5.084    -5.225    -0.140      0.00
   OH-             3.049e-09   1.601e-09    -8.516    -8.796    -0.280     -0.34
   H2O             5.551e+01   9.430e-01     1.744    -0.025     0.000     18.07
Amm           2.000e+00
   AmmH+           1.089e+00   4.963e-01     0.037    -0.304    -0.341     18.80
   AmmHSO4-        9.113e-01   4.226e-01    -0.040    -0.374    -0.334     44.45
   Amm             2.856e-05   4.744e-05    -4.544    -4.324     0.220     24.42
H(0)          2.954e-22
   H2              1.477e-22   2.516e-22   -21.831   -21.599     0.231     14.99
Na            1.000e+00
   Na+             7.631e-01   6.456e-01    -0.117    -0.190    -0.073      0.22
   NaSO4-          2.369e-01   2.143e-01    -0.626    -0.669    -0.044     26.46
   Na2SO4          4.305e-05   6.746e-05    -4.366    -4.171     0.195     47.96
O(0)          0.000e+00
   O2              0.000e+00   0.000e+00   -49.435   -49.215     0.220     30.40
S(6)          1.500e+00
   AmmHSO4-        9.113e-01   4.226e-01    -0.040    -0.374    -0.334     44.45
   SO4-2           3.517e-01   3.778e-02    -0.454    -1.423    -0.969     21.69
   NaSO4-          2.369e-01   2.143e-01    -0.626    -0.669    -0.044     26.46
   Na2SO4          4.305e-05   6.746e-05    -4.366    -4.171     0.195     47.96
   HSO4-           2.032e-05   2.190e-05    -4.692    -4.660     0.032     41.46

------------------------------Saturation indices-------------------------------

  Phase               SI** log IAP   log K(298 K,   1 atm)

  Amm(g)           -6.12     -4.32    1.80  Amm
  H2(g)           -18.50    -21.60   -3.10  H2
  H2O(g)           -1.53     -0.03    1.50  H2O
  Mirabilite       -1.35     -2.06   -0.71  Na2SO4:10H2O
  O2(g)           -46.32    -49.22   -2.89  O2
  Thenardite       -2.45     -1.80    0.65  Na2SO4

**For a gas, SI = log10(fugacity). Fugacity = pressure * phi / 1 atm.
  For ideal gases, phi = 1.

Initial solution 15.	

-----------------------------Solution composition------------------------------

	Elements           Molality       Moles

	Amm               3.000e+00   3.000e+00
	Na                1.500e+00   1.500e+00
	S(6)              2.250e+00   2.250e+00

----------------------------Description of solution----------------------------

                                       pH  =   5.173      Charge balance
                                       pe  =   4.000    
      Specific Conductance (ÂµS/cm,  25Â°C)  = 187230
                          Density (g/cmÂł)  =   1.16360
                               Volume (L)  =   1.12130
                        Viscosity (mPa s)  =   1.63617
                        Activity of water  =   0.916
                 Ionic strength (mol/kgw)  =   3.116e+00
                       Mass of water (kg)  =   1.000e+00
                 Total alkalinity (eq/kg)  =   4.537e-16
                         Temperature (Â°C)  =  25.00
                  Electrical balance (eq)  =   2.711e-13
 Percent error, 100*(Cat-|An|)/(Cat+|An|)  =   0.00
                               Iterations  =   9 (63 overall)
                                  Total H  = 1.140124e+02
                                  Total O  = 6.450622e+01

----------------------------Distribution of species----------------------------

                                               Log       Log       Log    mole V
   Species          Molality    Activity  Molality  Activity     Gamma   cmÂł/mol

   H+              9.373e-06   6.716e-06    -5.028    -5.173    -0.145      0.00
   OH-             2.737e-09   1.381e-09    -8.563    -8.860    -0.297      0.92
   H2O             5.551e+01   9.161e-01     1.744    -0.038     0.000     18.07
Amm           3.000e+00
   AmmH+           1.533e+00   6.576e-01     0.185    -0.182    -0.368     18.92
   AmmHSO4-        1.467e+00   5.744e-01     0.166    -0.241    -0.407     46.52
   Amm             2.723e-05   5.580e-05    -4.565    -4.253     0.312     24.42
H(0)          3.007e-22
   H2              1.503e-22   3.193e-22   -21.823   -21.496     0.327     14.99
Na            1.500e+00
   Na+             1.150e+00   1.119e+00     0.061     0.049    -0.012      0.52
   NaSO4-          3.498e-01   3.808e-01    -0.456    -0.419     0.037     28.54
   Na2SO4          1.101e-04   2.077e-04    -3.958    -3.683     0.276     47.96
O(0)          0.000e+00
   O2              0.000e+00   0.000e+00   -49.759   -49.447     0.312     30.40
S(6)          2.250e+00
   AmmHSO4-        1.467e+00   5.744e-01     0.166    -0.241    -0.407     46.52
   SO4-2           4.329e-01   3.875e-02    -0.364    -1.412    -1.048     24.27
   NaSO4-          3.498e-01   3.808e-01    -0.456    -0.419     0.037     28.54
   Na2SO4          1.101e-04   2.077e-04    -3.958    -3.683     0.276     47.96
   HSO4-           1.786e-05   2.530e-05    -4.748    -4.597     0.151     41.64

------------------------------Saturation indices-------------------------------

  Phase               SI** log IAP   log K(298 K,   1 atm)

  Amm(g)           -6.05     -4.25    1.80  Amm
  H2(g)           -18.40    -21.50   -3.10  H2
  H2O(g)           -1.54     -0.04    1.50  H2O
  Mirabilite       -0.99     -1.69   -0.71  Na2SO4:10H2O
  O2(g)           -46.55    -49.45   -2.89  O2
  Thenardite       -1.96     -1.31    0.65  Na2SO4

**For a gas, SI = log10(fugacity). Fugacity = pressure * phi / 1 atm.
  For ideal gases, phi = 1.

Initial solution 16.	

-----------------------------Solution composition------------------------------

	Elements           Molality       Moles

	Amm               4.000e+00   4.000e+00
	Na                2.000e+00   2.000e+00
	S(6)              3.000e+00   3.000e+00

----------------------------Description of solution----------------------------

                                       pH  =   5.136      Charge balance
                                       pe  =   4.000    
      Specific Conductance (ÂµS/cm,  25Â°C)  = 211024
                          Density (g/cmÂł)  =   1.20504
                               Volume (L)  =   1.16704
                        Viscosity (mPa s)  =   1.99068
                        Activity of water  =   0.890
                 Ionic strength (mol/kgw)  =   3.989e+00
                       Mass of water (kg)  =   1.000e+00
                 Total alkalinity (eq/kg)  =  -1.021e-16
                         Temperature (Â°C)  =  25.00
                  Electrical balance (eq)  =   2.733e-11
 Percent error, 100*(Cat-|An|)/(Cat+|An|)  =   0.00
                               Iterations  =   8 (71 overall)
                                  Total H  = 1.150124e+02
                                  Total O  = 6.750622e+01

----------------------------Distribution of species----------------------------

                                               Log       Log       Log    mole V
   Species          Molality    Activity  Molality  Activity     Gamma   cmÂł/mol

   H+              1.026e-05   7.308e-06    -4.989    -5.136    -0.148      0.00
   OH-             2.510e-09   1.232e-09    -8.600    -8.909    -0.309      2.09
   H2O             5.551e+01   8.896e-01     1.744    -0.051     0.000     18.07
Amm           4.000e+00
   AmmHSO4-        2.059e+00   6.886e-01     0.314    -0.162    -0.476     48.22
   AmmH+           1.941e+00   7.983e-01     0.288    -0.098    -0.386     19.01
   Amm             2.485e-05   6.225e-05    -4.605    -4.206     0.399     24.42
H(0)          2.882e-22
   H2              1.441e-22   3.781e-22   -21.841   -21.422     0.419     14.99
Na            2.000e+00
   Na+             1.554e+00   1.743e+00     0.191     0.241     0.050      0.76
   NaSO4-          4.460e-01   5.860e-01    -0.351    -0.232     0.119     30.28
   Na2SO4          2.210e-04   4.981e-04    -3.656    -3.303     0.353     47.96
O(0)          0.000e+00
   O2              0.000e+00   0.000e+00   -50.018   -49.619     0.399     30.40
S(6)          3.000e+00
   AmmHSO4-        2.059e+00   6.886e-01     0.314    -0.162    -0.476     48.22
   SO4-2           4.946e-01   3.826e-02    -0.306    -1.417    -1.111     26.68
   NaSO4-          4.460e-01   5.860e-01    -0.351    -0.232     0.119     30.28
   Na2SO4          2.210e-04   4.981e-04    -3.656    -3.303     0.353     47.96
   HSO4-           1.458e-05   2.719e-05    -4.836    -4.566     0.270     41.79

------------------------------Saturation indices-------------------------------

  Phase               SI** log IAP   log K(298 K,   1 atm)

  Amm(g)           -6.00     -4.21    1.80  Amm
  H2(g)           -18.32    -21.42   -3.10  H2
  H2O(g)           -1.55     -0.05    1.50  H2O
  Mirabilite       -0.74     -1.44   -0.71  Na2SO4:10H2O
  O2(g)           -46.73    -49.62   -2.89  O2
  Thenardite       -1.58     -0.93    0.65  Na2SO4

**For a gas, SI = log10(fugacity). Fugacity = pressure * phi / 1 atm.
  For ideal gases, phi = 1.

Initial solution 17.	

-----------------------------Solution composition------------------------------

	Elements           Molality       Moles

	Amm               5.000e+00   5.000e+00
	Na                1.000e+00   1.000e+00
	S(6)              3.000e+00   3.000e+00

----------------------------Description of solution----------------------------

                                       pH  =   5.051      Charge balance
                                       pe  =   4.000    
      Specific Conductance (ÂµS/cm,  25Â°C)  = 232305
                          Density (g/cmÂł)  =   1.18314
                               Volume (L)  =   1.18446
                        Viscosity (mPa s)  =   1.78510
                        Activity of water  =   0.891
                 Ionic strength (mol/kgw)  =   3.842e+00
                       Mass of water (kg)  =   1.000e+00
                 Total alkalinity (eq/kg)  =   2.880e-14
                         Temperature (Â°C)  =  25.00
                  Electrical balance (eq)  =  -2.742e-08
 Percent error, 100*(Cat-|An|)/(Cat+|An|)  =  -0.00
                               Iterations  =   7 (78 overall)
                                  Total H  = 1.160124e+02
                                  Total O  = 6.750622e+01

----------------------------Distribution of species----------------------------

                                               Log       Log       Log    mole V
   Species          Molality    Activity  Molality  Activity     Gamma   cmÂł/mol

   H+              1.249e-05   8.898e-06    -4.904    -5.051    -0.147      0.00
   OH-             2.056e-09   1.013e-09    -8.687    -8.994    -0.307      1.90
   H2O             5.551e+01   8.908e-01     1.744    -0.050     0.000     18.07
Amm           5.000e+00
   AmmH+           2.623e+00   1.086e+00     0.419     0.036    -0.383     18.99
   AmmHSO4-        2.377e+00   8.161e-01     0.376    -0.088    -0.464     47.95
   Amm             2.870e-05   6.953e-05    -4.542    -4.158     0.384     24.42
H(0)          4.427e-22
   H2              2.214e-22   5.605e-22   -21.655   -21.251     0.403     14.99
Na            1.000e+00
   Na+             7.986e-01   8.745e-01    -0.098    -0.058     0.039      0.73
   NaSO4-          2.013e-01   2.562e-01    -0.696    -0.591     0.105     30.00
   Na2SO4          4.993e-05   1.092e-04    -4.302    -3.962     0.340     47.96
O(0)          0.000e+00
   O2              0.000e+00   0.000e+00   -50.344   -49.960     0.384     30.40
S(6)          3.000e+00
   AmmHSO4-        2.377e+00   8.161e-01     0.376    -0.088    -0.464     47.95
   SO4-2           4.212e-01   3.335e-02    -0.375    -1.477    -1.101     26.28
   NaSO4-          2.013e-01   2.562e-01    -0.696    -0.591     0.105     30.00
   Na2SO4          4.993e-05   1.092e-04    -4.302    -3.962     0.340     47.96
   HSO4-           1.622e-05   2.885e-05    -4.790    -4.540     0.250     41.77

------------------------------Saturation indices-------------------------------

  Phase               SI** log IAP   log K(298 K,   1 atm)

  Amm(g)           -5.95     -4.16    1.80  Amm
  H2(g)           -18.15    -21.25   -3.10  H2
  H2O(g)           -1.55     -0.05    1.50  H2O
  Mirabilite       -1.39     -2.10   -0.71  Na2SO4:10H2O
  O2(g)           -47.07    -49.96   -2.89  O2
  Thenardite       -2.24     -1.59    0.65  Na2SO4

**For a gas, SI = log10(fugacity). Fugacity = pressure * phi / 1 atm.
  For ideal gases, phi = 1.

Initial solution 18.	

-----------------------------Solution composition------------------------------

	Elements           Molality       Moles

	Amm               4.000e+00   4.000e+00
	Na                1.000e+00   1.000e+00
	S(6)              2.500e+00   2.500e+00

----------------------------Description of solution----------------------------

                                       pH  =   5.092      Charge balance
                                       pe  =   4.000    
      Specific Conductance (ÂµS/cm,  25Â°C)  = 210598
                          Density (g/cmÂł)  =   1.16312
                               Volume (L)  =   1.14804
                        Viscosity (mPa s)  =   1.62333
                        Activity of water  =   0.908
                 Ionic strength (mol/kgw)  =   3.310e+00
                       Mass of water (kg)  =   1.000e+00
                 Total alkalinity (eq/kg)  =   6.024e-16
                         Temperature (Â°C)  =  25.00
                  Electrical balance (eq)  =   1.029e-12
 Percent error, 100*(Cat-|An|)/(Cat+|An|)  =   0.00
                               Iterations  =   9 (87 overall)
                                  Total H  = 1.150124e+02
                                  Total O  = 6.550622e+01

----------------------------Distribution of species----------------------------

                                               Log       Log       Log    mole V
   Species          Molality    Activity  Molality  Activity     Gamma   cmÂł/mol

   H+              1.130e-05   8.083e-06    -4.947    -5.092    -0.145      0.00
   OH-             2.270e-09   1.137e-09    -8.644    -8.944    -0.300      1.19
   H2O             5.551e+01   9.081e-01     1.744    -0.042     0.000     18.07
Amm           4.000e+00
   AmmH+           2.119e+00   8.998e-01     0.326    -0.046    -0.372     18.94
   AmmHSO4-        1.881e+00   7.107e-01     0.274    -0.148    -0.423     46.92
   Amm             2.960e-05   6.343e-05    -4.529    -4.198     0.331     24.42
H(0)          4.155e-22
   H2              2.078e-22   4.626e-22   -21.682   -21.335     0.348     14.99
Na            1.000e+00
   Na+             7.859e-01   7.887e-01    -0.105    -0.103     0.002      0.57
   NaSO4-          2.140e-01   2.428e-01    -0.670    -0.615     0.055     28.94
   Na2SO4          4.756e-05   9.336e-05    -4.323    -4.030     0.293     47.96
O(0)          0.000e+00
   O2              0.000e+00   0.000e+00   -50.108   -49.777     0.331     30.40
S(6)          2.500e+00
   AmmHSO4-        1.881e+00   7.107e-01     0.274    -0.148    -0.423     46.92
   SO4-2           4.052e-01   3.504e-02    -0.392    -1.455    -1.063     24.81
   NaSO4-          2.140e-01   2.428e-01    -0.670    -0.615     0.055     28.94
   Na2SO4          4.756e-05   9.336e-05    -4.323    -4.030     0.293     47.96
   HSO4-           1.830e-05   2.754e-05    -4.737    -4.560     0.177     41.68

------------------------------Saturation indices-------------------------------

  Phase               SI** log IAP   log K(298 K,   1 atm)

  Amm(g)           -5.99     -4.20    1.80  Amm
  H2(g)           -18.24    -21.33   -3.10  H2
  H2O(g)           -1.54     -0.04    1.50  H2O
  Mirabilite       -1.37     -2.08   -0.71  Na2SO4:10H2O
  O2(g)           -46.88    -49.78   -2.89  O2
  Thenardite       -2.31     -1.66    0.65  Na2SO4

**For a gas, SI = log10(fugacity). Fugacity = pressure * phi / 1 atm.
  For ideal gases, phi = 1.

Initial solution 19.	

-----------------------------Solution composition------------------------------

	Elements           Molality       Moles

	Amm               1.000e+00   1.000e+00
	K                 1.000e+00   1.000e+00
	S(6)              1.000e+00   1.000e+00

----------------------------Description of solution----------------------------

                                       pH  =   5.372      Charge balance
                                       pe  =   4.000    
      Specific Conductance (ÂµS/cm,  25Â°C)  = 133233
                          Density (g/cmÂł)  =   1.09163
                               Volume (L)  =   1.05641
                        Viscosity (mPa s)  =   1.09471
                        Activity of water  =   0.960
                 Ionic strength (mol/kgw)  =   1.656e+00
                       Mass of water (kg)  =   1.000e+00
                 Total alkalinity (eq/kg)  =   1.517e-16
                         Temperature (Â°C)  =  25.00
                  Electrical balance (eq)  =   1.300e-13
 Percent error, 100*(Cat-|An|)/(Cat+|An|)  =   0.00
                               Iterations  =   7 (94 overall)
                                  Total H  = 1.120124e+02
                                  Total O  = 5.950622e+01

----------------------------Distribution of species----------------------------

                                               Log       Log       Log    mole V
   Species          Molality    Activity  Molality  Activity     Gamma   cmÂł/mol

   H+              5.813e-06   4.244e-06    -5.236    -5.372    -0.137      0.00
   OH-             4.213e-09   2.290e-09    -8.375    -8.640    -0.265     -1.12
   H2O             5.551e+01   9.604e-01     1.744    -0.018     0.000     18.07
Amm           1.000e+00
   AmmH+           5.414e-01   2.597e-01    -0.266    -0.586    -0.319     18.71
   AmmHSO4-        4.585e-01   2.364e-01    -0.339    -0.626    -0.288     42.99
   Amm             2.382e-05   3.487e-05    -4.623    -4.458     0.166     24.42
H(0)          1.709e-22
   H2              8.546e-23   1.275e-22   -22.068   -21.894     0.174     14.99
K             1.000e+00
   K+              7.864e-01   4.527e-01    -0.104    -0.344    -0.240     10.17
   KSO4-           2.136e-01   2.782e-01    -0.670    -0.556     0.115     42.19
O(0)          0.000e+00
   O2              0.000e+00   0.000e+00   -48.774   -48.609     0.166     30.40
S(6)          1.000e+00
   AmmHSO4-        4.585e-01   2.364e-01    -0.339    -0.626    -0.288     42.99
   SO4-2           3.278e-01   4.039e-02    -0.484    -1.394    -0.909     20.10
   KSO4-           2.136e-01   2.782e-01    -0.670    -0.556     0.115     42.19
   HSO4-           1.801e-05   1.667e-05    -4.745    -4.778    -0.034     41.32

------------------------------Saturation indices-------------------------------

  Phase               SI** log IAP   log K(298 K,   1 atm)

  Amm(g)           -6.25     -4.46    1.80  Amm
  Arcanite         -0.20     -2.08   -1.88  K2SO4
  H2(g)           -18.80    -21.89   -3.10  H2
  H2O(g)           -1.52     -0.02    1.50  H2O
  O2(g)           -45.72    -48.61   -2.89  O2

**For a gas, SI = log10(fugacity). Fugacity = pressure * phi / 1 atm.
  For ideal gases, phi = 1.

Initial solution 20.	

-----------------------------Solution composition------------------------------

	Elements           Molality       Moles

	Amm               1.500e+00   1.500e+00
	K                 1.500e+00   1.500e+00
	S(6)              1.500e+00   1.500e+00

----------------------------Description of solution----------------------------

                                       pH  =   5.349      Charge balance
                                       pe  =   4.000    
      Specific Conductance (ÂµS/cm,  25Â°C)  = 177175
                          Density (g/cmÂł)  =   1.13139
                               Volume (L)  =   1.08698
                        Viscosity (mPa s)  =   1.21341
                        Activity of water  =   0.941
                 Ionic strength (mol/kgw)  =   2.406e+00
                       Mass of water (kg)  =   1.000e+00
                 Total alkalinity (eq/kg)  =  -1.153e-13
                         Temperature (Â°C)  =  25.00
                  Electrical balance (eq)  =   3.175e-09
 Percent error, 100*(Cat-|An|)/(Cat+|An|)  =   0.00
                               Iterations  =   6 (100 overall)
                                  Total H  = 1.125124e+02
                                  Total O  = 6.150622e+01

----------------------------Distribution of species----------------------------

                                               Log       Log       Log    mole V
   Species          Molality    Activity  Molality  Activity     Gamma   cmÂł/mol

   H+              6.210e-06   4.482e-06    -5.207    -5.349    -0.142      0.00
   OH-             4.090e-09   2.126e-09    -8.388    -8.672    -0.284     -0.05
   H2O             5.551e+01   9.413e-01     1.744    -0.026     0.000     18.07
Amm           1.500e+00
   AmmHSO4-        7.699e-01   3.437e-01    -0.114    -0.464    -0.350     44.94
   AmmH+           7.301e-01   3.277e-01    -0.137    -0.485    -0.348     18.83
   Amm             2.395e-05   4.167e-05    -4.621    -4.380     0.241     24.42
H(0)          1.590e-22
   H2              7.949e-23   1.422e-22   -22.100   -21.847     0.253     14.99
K             1.500e+00
   K+              1.223e+00   6.905e-01     0.087    -0.161    -0.248     10.52
   KSO4-           2.773e-01   4.888e-01    -0.557    -0.311     0.246     45.86
O(0)          0.000e+00
   O2              0.000e+00   0.000e+00   -48.961   -48.721     0.241     30.40
S(6)          1.500e+00
   AmmHSO4-        7.699e-01   3.437e-01    -0.114    -0.464    -0.350     44.94
   SO4-2           4.528e-01   4.653e-02    -0.344    -1.332    -0.988     22.27
   KSO4-           2.773e-01   4.888e-01    -0.557    -0.311     0.246     45.86
   HSO4-           1.774e-05   2.027e-05    -4.751    -4.693     0.058     41.50

------------------------------Saturation indices-------------------------------

  Phase               SI** log IAP   log K(298 K,   1 atm)

  Amm(g)           -6.18     -4.38    1.80  Amm
  Arcanite          0.23     -1.65   -1.88  K2SO4
  H2(g)           -18.75    -21.85   -3.10  H2
  H2O(g)           -1.53     -0.03    1.50  H2O
  O2(g)           -45.83    -48.72   -2.89  O2

**For a gas, SI = log10(fugacity). Fugacity = pressure * phi / 1 atm.
  For ideal gases, phi = 1.

Initial solution 21.	

-----------------------------Solution composition------------------------------

	Elements           Molality       Moles

	Amm               2.000e+00   2.000e+00
	K                 2.000e+00   2.000e+00
	S(6)              2.000e+00   2.000e+00

----------------------------Description of solution----------------------------

                                       pH  =   5.335      Charge balance
                                       pe  =   4.000    
      Specific Conductance (ÂµS/cm,  25Â°C)  = 211614
                          Density (g/cmÂł)  =   1.16734
                               Volume (L)  =   1.11914
                        Viscosity (mPa s)  =   1.35118
                        Activity of water  =   0.922
                 Ionic strength (mol/kgw)  =   3.148e+00
                       Mass of water (kg)  =   1.000e+00
                 Total alkalinity (eq/kg)  =   1.909e-15
                         Temperature (Â°C)  =  25.00
                  Electrical balance (eq)  =   1.045e-10
 Percent error, 100*(Cat-|An|)/(Cat+|An|)  =   0.00
                               Iterations  =   7 (107 overall)
                                  Total H  = 1.130124e+02
                                  Total O  = 6.350622e+01

----------------------------Distribution of species----------------------------

                                               Log       Log       Log    mole V
   Species          Molality    Activity  Molality  Activity     Gamma   cmÂł/mol

   H+              6.462e-06   4.629e-06    -5.190    -5.335    -0.145      0.00
   OH-             4.002e-09   2.017e-09    -8.398    -8.695    -0.298      0.97
   H2O             5.551e+01   9.222e-01     1.744    -0.035     0.000     18.07
Amm           2.000e+00
   AmmHSO4-        1.118e+00   4.350e-01     0.048    -0.361    -0.410     46.59
   AmmH+           8.821e-01   3.778e-01    -0.054    -0.423    -0.368     18.92
   Amm             2.253e-05   4.651e-05    -4.647    -4.332     0.315     24.42
H(0)          1.417e-22
   H2              7.085e-23   1.517e-22   -22.150   -21.819     0.331     14.99
K             2.000e+00
   K+              1.692e+00   9.505e-01     0.228    -0.022    -0.250     10.86
   KSO4-           3.080e-01   7.388e-01    -0.511    -0.131     0.380     48.83
O(0)          0.000e+00
   O2              0.000e+00   0.000e+00   -49.110   -48.795     0.315     30.40
S(6)          2.000e+00
   AmmHSO4-        1.118e+00   4.350e-01     0.048    -0.361    -0.410     46.59
   SO4-2           5.741e-01   5.109e-02    -0.241    -1.292    -1.051     24.36
   KSO4-           3.080e-01   7.388e-01    -0.511    -0.131     0.380     48.83
   HSO4-           1.607e-05   2.299e-05    -4.794    -4.638     0.156     41.65

------------------------------Saturation indices-------------------------------

  Phase               SI** log IAP   log K(298 K,   1 atm)

  Amm(g)           -6.13     -4.33    1.80  Amm
  Arcanite          0.54     -1.34   -1.88  K2SO4
  H2(g)           -18.72    -21.82   -3.10  H2
  H2O(g)           -1.54     -0.04    1.50  H2O
  O2(g)           -45.90    -48.79   -2.89  O2

**For a gas, SI = log10(fugacity). Fugacity = pressure * phi / 1 atm.
  For ideal gases, phi = 1.

Initial solution 22.	

-----------------------------Solution composition------------------------------

	Elements           Molality       Moles

	Amm               1.500e+00   1.500e+00
	K                 1.000e+00   1.000e+00
	S(6)              1.250e+00   1.250e+00

----------------------------Description of solution----------------------------

                                       pH  =   5.297      Charge balance
                                       pe  =   4.000    
      Specific Conductance (ÂµS/cm,  25Â°C)  = 154507
                          Density (g/cmÂł)  =   1.10560
                               Volume (L)  =   1.07294
                        Viscosity (mPa s)  =   1.15050
                        Activity of water  =   0.951
                 Ionic strength (mol/kgw)  =   1.964e+00
                       Mass of water (kg)  =   1.000e+00
                 Total alkalinity (eq/kg)  =  -1.407e-16
                         Temperature (Â°C)  =  25.00
                  Electrical balance (eq)  =  -5.396e-14
 Percent error, 100*(Cat-|An|)/(Cat+|An|)  =  -0.00
                               Iterations  =   7 (114 overall)
                                  Total H  = 1.125124e+02
                                  Total O  = 6.050622e+01

----------------------------Distribution of species----------------------------

                                               Log       Log       Log    mole V
   Species          Molality    Activity  Molality  Activity     Gamma   cmÂł/mol

   H+              6.952e-06   5.048e-06    -5.158    -5.297    -0.139      0.00
   OH-             3.583e-09   1.908e-09    -8.446    -8.719    -0.274     -0.68
   H2O             5.551e+01   9.514e-01     1.744    -0.022     0.000     18.07
Amm           1.500e+00
   AmmH+           7.996e-01   3.720e-01    -0.097    -0.429    -0.332     18.77
   AmmHSO4-        7.004e-01   3.401e-01    -0.155    -0.468    -0.314     43.84
   Amm             2.672e-05   4.200e-05    -4.573    -4.377     0.196     24.42
H(0)          2.244e-22
   H2              1.122e-22   1.804e-22   -21.950   -21.744     0.206     14.99
K             1.000e+00
   K+              8.073e-01   4.600e-01    -0.093    -0.337    -0.244     10.32
   KSO4-           1.927e-01   2.838e-01    -0.715    -0.547     0.168     43.80
O(0)          0.000e+00
   O2              0.000e+00   0.000e+00   -49.115   -48.918     0.196     30.40
S(6)          1.250e+00
   AmmHSO4-        7.004e-01   3.401e-01    -0.155    -0.468    -0.314     43.84
   SO4-2           3.568e-01   4.055e-02    -0.448    -1.392    -0.944     21.00
   KSO4-           1.927e-01   2.838e-01    -0.715    -0.547     0.168     43.80
   HSO4-           1.977e-05   1.990e-05    -4.704    -4.701     0.003     41.40

------------------------------Saturation indices-------------------------------

  Phase               SI** log IAP   log K(298 K,   1 atm)

  Amm(g)           -6.17     -4.38    1.80  Amm
  Arcanite         -0.19     -2.07   -1.88  K2SO4
  H2(g)           -18.64    -21.74   -3.10  H2
  H2O(g)           -1.52     -0.02    1.50  H2O
  O2(g)           -46.03    -48.92   -2.89  O2

**For a gas, SI = log10(fugacity). Fugacity = pressure * phi / 1 atm.
  For ideal gases, phi = 1.

Initial solution 23.	

-----------------------------Solution composition------------------------------

	Elements           Molality       Moles

	Amm               1.000e+00   1.000e+00
	K                 1.500e+00   1.500e+00
	S(6)              1.250e+00   1.250e+00

----------------------------Description of solution----------------------------

                                       pH  =   5.431      Charge balance
                                       pe  =   4.000    
      Specific Conductance (ÂµS/cm,  25Â°C)  = 159113
                          Density (g/cmÂł)  =   1.11837
                               Volume (L)  =   1.07010
                        Viscosity (mPa s)  =   1.15255
                        Activity of water  =   0.950
                 Ionic strength (mol/kgw)  =   2.111e+00
                       Mass of water (kg)  =   1.000e+00
                 Total alkalinity (eq/kg)  =   5.080e-13
                         Temperature (Â°C)  =  25.00
                  Electrical balance (eq)  =  -1.924e-09
 Percent error, 100*(Cat-|An|)/(Cat+|An|)  =  -0.00
                               Iterations  =   6 (120 overall)
                                  Total H  = 1.120124e+02
                                  Total O  = 6.050622e+01

----------------------------Distribution of species----------------------------

                                               Log       Log       Log    mole V
   Species          Molality    Activity  Molality  Activity     Gamma   cmÂł/mol

   H+              5.115e-06   3.706e-06    -5.291    -5.431    -0.140      0.00
   OH-             4.916e-09   2.595e-09    -8.308    -8.586    -0.277     -0.47
   H2O             5.551e+01   9.502e-01     1.744    -0.022     0.000     18.07
Amm           1.000e+00
   AmmHSO4-        5.089e-01   2.402e-01    -0.293    -0.619    -0.326     44.22
   AmmH+           4.911e-01   2.256e-01    -0.309    -0.647    -0.338     18.79
   Amm             2.133e-05   3.468e-05    -4.671    -4.460     0.211     24.42
H(0)          1.167e-22
   H2              5.837e-23   9.725e-23   -22.234   -22.012     0.222     14.99
K             1.500e+00
   K+              1.189e+00   6.753e-01     0.075    -0.170    -0.246     10.39
   KSO4-           3.105e-01   4.854e-01    -0.508    -0.314     0.194     44.52
O(0)          0.000e+00
   O2              0.000e+00   0.000e+00   -48.594   -48.383     0.211     30.40
S(6)          1.250e+00
   AmmHSO4-        5.089e-01   2.402e-01    -0.293    -0.619    -0.326     44.22
   SO4-2           4.306e-01   4.724e-02    -0.366    -1.326    -0.960     21.42
   KSO4-           3.105e-01   4.854e-01    -0.508    -0.314     0.194     44.52
   HSO4-           1.622e-05   1.702e-05    -4.790    -4.769     0.021     41.44

------------------------------Saturation indices-------------------------------

  Phase               SI** log IAP   log K(298 K,   1 atm)

  Amm(g)           -6.26     -4.46    1.80  Amm
  Arcanite          0.21     -1.67   -1.88  K2SO4
  H2(g)           -18.91    -22.01   -3.10  H2
  H2O(g)           -1.53     -0.02    1.50  H2O
  O2(g)           -45.49    -48.38   -2.89  O2

**For a gas, SI = log10(fugacity). Fugacity = pressure * phi / 1 atm.
  For ideal gases, phi = 1.

Initial solution 24.	

-----------------------------Solution composition------------------------------

	Elements           Molality       Moles

	Amm               2.000e+00   2.000e+00
	K                 1.000e+00   1.000e+00
	S(6)              1.500e+00   1.500e+00

----------------------------Description of solution----------------------------

                                       pH  =   5.243      Charge balance
                                       pe  =   4.000    
      Specific Conductance (ÂµS/cm,  25Â°C)  = 173427
                          Density (g/cmÂł)  =   1.11883
                               Volume (L)  =   1.08977
                        Viscosity (mPa s)  =   1.20925
                        Activity of water  =   0.943
                 Ionic strength (mol/kgw)  =   2.260e+00
                       Mass of water (kg)  =   1.000e+00
                 Total alkalinity (eq/kg)  =  -4.071e-13
                         Temperature (Â°C)  =  25.00
                  Electrical balance (eq)  =   1.945e-08
 Percent error, 100*(Cat-|An|)/(Cat+|An|)  =   0.00
                               Iterations  =   6 (126 overall)
                                  Total H  = 1.130124e+02
                                  Total O  = 6.150622e+01

----------------------------Distribution of species----------------------------

                                               Log       Log       Log    mole V
   Species          Molality    Activity  Molality  Activity     Gamma   cmÂł/mol

   H+              7.899e-06   5.711e-06    -5.102    -5.243    -0.141      0.00
   OH-             3.190e-09   1.670e-09    -8.496    -8.777    -0.281     -0.26
   H2O             5.551e+01   9.425e-01     1.744    -0.026     0.000     18.07
Amm           2.000e+00
   AmmH+           1.053e+00   4.779e-01     0.022    -0.321    -0.343     18.81
   AmmHSO4-        9.468e-01   4.344e-01    -0.024    -0.362    -0.338     44.59
   Amm             2.834e-05   4.768e-05    -4.548    -4.322     0.226     24.42
H(0)          2.674e-22
   H2              1.337e-22   2.309e-22   -21.874   -21.637     0.237     14.99
K             1.000e+00
   K+              8.271e-01   4.682e-01    -0.082    -0.330    -0.247     10.46
   KSO4-           1.729e-01   2.872e-01    -0.762    -0.542     0.220     45.21
O(0)          0.000e+00
   O2              0.000e+00   0.000e+00   -49.367   -49.141     0.226     30.40
S(6)          1.500e+00
   AmmHSO4-        9.468e-01   4.344e-01    -0.024    -0.362    -0.338     44.59
   SO4-2           3.802e-01   4.032e-02    -0.420    -1.394    -0.975     21.85
   KSO4-           1.729e-01   2.872e-01    -0.762    -0.542     0.220     45.21
   HSO4-           2.044e-05   2.239e-05    -4.690    -4.650     0.040     41.47

------------------------------Saturation indices-------------------------------

  Phase               SI** log IAP   log K(298 K,   1 atm)

  Amm(g)           -6.12     -4.32    1.80  Amm
  Arcanite         -0.17     -2.05   -1.88  K2SO4
  H2(g)           -18.54    -21.64   -3.10  H2
  H2O(g)           -1.53     -0.03    1.50  H2O
  O2(g)           -46.25    -49.14   -2.89  O2

**For a gas, SI = log10(fugacity). Fugacity = pressure * phi / 1 atm.
  For ideal gases, phi = 1.

Initial solution 25.	

-----------------------------Solution composition------------------------------

	Elements           Molality       Moles

	Amm               1.000e+00   1.000e+00
	Br                5.000e-01   5.000e-01
[...]
   OH-             2.333e-09   1.165e-09    -8.632    -8.934    -0.302      1.33
   H2O             5.551e+01   8.945e-01     1.744    -0.048     0.000     18.07
Amm           2.000e+00
   AmmH+           1.379e+00   5.824e-01     0.140    -0.235    -0.374     18.95
   AmmHSO4-        6.210e-01   2.303e-01    -0.207    -0.638    -0.431     47.12
   Amm             1.946e-05   4.270e-05    -4.711    -4.370     0.341     24.42
Br            1.000e+00
   Br-             1.000e+00   6.600e-01     0.000    -0.180    -0.180     25.92
Cl            1.000e+00
   Cl-             1.000e+00   5.806e-01    -0.000    -0.236    -0.236     19.64
   HCl             5.483e-08   1.554e-06    -7.261    -5.808     1.453     20.36
H(0)          3.748e-22
   H2              1.874e-22   4.277e-22   -21.727   -21.369     0.358     14.99
K             1.000e+00
   K+              9.470e-01   5.320e-01    -0.024    -0.274    -0.250     10.98
   KSO4-           5.299e-02   1.420e-01    -1.276    -0.848     0.428     49.77
Na            1.000e+00
   Na+             8.805e-01   8.985e-01    -0.055    -0.046     0.009      0.60
   NaSO4-          1.194e-01   1.385e-01    -0.923    -0.859     0.064     29.15
   Na2SO4          3.026e-05   6.067e-05    -4.519    -4.217     0.302     47.96
O(0)          0.000e+00
   O2              0.000e+00   0.000e+00   -50.063   -49.722     0.341     30.40
S(6)          1.000e+00
   AmmHSO4-        6.210e-01   2.303e-01    -0.207    -0.638    -0.431     47.12
   SO4-2           2.065e-01   1.755e-02    -0.685    -1.756    -1.071     25.09
   NaSO4-          1.194e-01   1.385e-01    -0.923    -0.859     0.064     29.15
   KSO4-           5.299e-02   1.420e-01    -1.276    -0.848     0.428     49.77
   Na2SO4          3.026e-05   6.067e-05    -4.519    -4.217     0.302     47.96
   HSO4-           8.535e-06   1.326e-05    -5.069    -4.878     0.191     41.70

------------------------------Saturation indices-------------------------------

  Phase               SI** log IAP   log K(298 K,   1 atm)

  Amm(g)           -6.17     -4.37    1.80  Amm
  Arcanite         -0.42     -2.30   -1.88  K2SO4
  H2(g)           -18.27    -21.37   -3.10  H2
  H2O(g)           -1.55     -0.05    1.50  H2O
  Halite           -1.85     -0.28    1.57  NaCl
  Mirabilite       -1.63     -2.33   -0.71  Na2SO4:10H2O
  O2(g)           -46.83    -49.72   -2.89  O2
  Sylvite          -1.41     -0.51    0.90  KCl
  Thenardite       -2.50     -1.85    0.65  Na2SO4

**For a gas, SI = log10(fugacity). Fugacity = pressure * phi / 1 atm.
  For ideal gases, phi = 1.

Initial solution 27.	

-----------------------------Solution composition------------------------------

	Elements           Molality       Moles

	Amm               3.000e+00   3.000e+00
	Br                1.500e+00   1.500e+00
	Cl                1.500e+00   1.500e+00
	K                 1.500e+00   1.500e+00
	Na                1.500e+00   1.500e+00
	S(6)              1.500e+00   1.500e+00

----------------------------Description of solution----------------------------

                                       pH  =   5.083      Charge balance
                                       pe  =   4.000    
      Specific Conductance (ÂµS/cm,  25Â°C)  = 306142
                          Density (g/cmÂł)  =   1.22556
                               Volume (L)  =   1.19487
                        Viscosity (mPa s)  =   1.38088
                        Activity of water  =   0.843
                 Ionic strength (mol/kgw)  =   5.004e+00
                       Mass of water (kg)  =   1.000e+00
                 Total alkalinity (eq/kg)  =   2.128e-15
                         Temperature (Â°C)  =  25.00
                  Electrical balance (eq)  =  -8.400e-09
 Percent error, 100*(Cat-|An|)/(Cat+|An|)  =  -0.00
                               Iterations  =   6 (146 overall)
                                  Total H  = 1.140124e+02
                                  Total O  = 6.150622e+01

----------------------------Distribution of species----------------------------

                                               Log       Log       Log    mole V
   Species          Molality    Activity  Molality  Activity     Gamma   cmÂł/mol

   H+              1.165e-05   8.253e-06    -4.934    -5.083    -0.150      0.00
   OH-             2.156e-09   1.033e-09    -8.666    -8.986    -0.319      3.43
   H2O             5.551e+01   8.427e-01     1.744    -0.074     0.000     18.07
Amm           3.000e+00
   AmmH+           1.952e+00   7.734e-01     0.291    -0.112    -0.402     19.10
   AmmHSO4-        1.048e+00   2.926e-01     0.020    -0.534    -0.554     49.96
   Amm             1.687e-05   5.340e-05    -4.773    -4.272     0.500     24.42
Br            1.500e+00
   Br-             1.500e+00   1.110e+00     0.176     0.045    -0.131     26.12
Cl            1.500e+00
   Cl-             1.500e+00   8.914e-01     0.176    -0.050    -0.226     19.94
   HCl             1.880e-08   2.534e-06    -7.726    -5.596     2.130     20.36
H(0)          2.877e-22
   H2              1.438e-22   4.822e-22   -21.842   -21.317     0.525     14.99
K             1.500e+00
   K+              1.460e+00   8.316e-01     0.164    -0.080    -0.244     11.69
   KSO4-           4.036e-02   2.123e-01    -1.394    -0.673     0.721     54.66
Na            1.500e+00
   Na+             1.340e+00   1.787e+00     0.127     0.252     0.125      1.02
   NaSO4-          1.598e-01   2.634e-01    -0.796    -0.579     0.217     32.10
   Na2SO4          8.278e-05   2.295e-04    -4.082    -3.639     0.443     47.96
O(0)          0.000e+00
   O2              0.000e+00   0.000e+00   -50.378   -49.878     0.500     30.40
S(6)          1.500e+00
   AmmHSO4-        1.048e+00   2.926e-01     0.020    -0.534    -0.554     49.96
   SO4-2           2.520e-01   1.678e-02    -0.599    -1.775    -1.177     29.43
   NaSO4-          1.598e-01   2.634e-01    -0.796    -0.579     0.217     32.10
   KSO4-           4.036e-02   2.123e-01    -1.394    -0.673     0.721     54.66
   Na2SO4          8.278e-05   2.295e-04    -4.082    -3.639     0.443     47.96
   HSO4-           5.201e-06   1.347e-05    -5.284    -4.871     0.413     41.93

------------------------------Saturation indices-------------------------------

  Phase               SI** log IAP   log K(298 K,   1 atm)

  Amm(g)           -6.07     -4.27    1.80  Amm
  Arcanite         -0.06     -1.94   -1.88  K2SO4
  H2(g)           -18.22    -21.32   -3.10  H2
  H2O(g)           -1.58     -0.07    1.50  H2O
  Halite           -1.37      0.20    1.57  NaCl
  Mirabilite       -1.31     -2.01   -0.71  Na2SO4:10H2O
  O2(g)           -46.99    -49.88   -2.89  O2
  Sylvite          -1.03     -0.13    0.90  KCl
  Thenardite       -1.92     -1.27    0.65  Na2SO4

**For a gas, SI = log10(fugacity). Fugacity = pressure * phi / 1 atm.
  For ideal gases, phi = 1.

Initial solution 28.	

-----------------------------Solution composition------------------------------

	Elements           Molality       Moles

	Amm               1.000e+00   1.000e+00
	Br                7.500e-01   7.500e-01
	Cl                1.000e+00   1.000e+00
	K                 7.500e-01   7.500e-01
	Na                1.000e+00   1.000e+00
	S(6)              5.000e-01   5.000e-01

----------------------------Description of solution----------------------------

                                       pH  =   5.178      Charge balance
                                       pe  =   4.000    
      Specific Conductance (ÂµS/cm,  25Â°C)  = 202832
                          Density (g/cmÂł)  =   1.12183
                               Volume (L)  =   1.08195
                        Viscosity (mPa s)  =   1.03651
                        Activity of water  =   0.921
                 Ionic strength (mol/kgw)  =   2.510e+00
                       Mass of water (kg)  =   1.000e+00
                 Total alkalinity (eq/kg)  =  -3.596e-15
                         Temperature (Â°C)  =  25.00
                  Electrical balance (eq)  =   2.595e-11
 Percent error, 100*(Cat-|An|)/(Cat+|An|)  =   0.00
                               Iterations  =   7 (153 overall)
                                  Total H  = 1.120124e+02
                                  Total O  = 5.750622e+01

----------------------------Distribution of species----------------------------

                                               Log       Log       Log    mole V
   Species          Molality    Activity  Molality  Activity     Gamma   cmÂł/mol

   H+              9.214e-06   6.641e-06    -5.036    -5.178    -0.142      0.00
   OH-             2.715e-09   1.404e-09    -8.566    -8.853    -0.286      0.09
   H2O             5.551e+01   9.213e-01     1.744    -0.036     0.000     18.07
Amm           1.000e+00
   AmmH+           7.691e-01   3.426e-01    -0.114    -0.465    -0.351     18.84
   AmmHSO4-        2.309e-01   1.011e-01    -0.637    -0.995    -0.359     45.19
   Amm             1.649e-05   2.940e-05    -4.783    -4.532     0.251     24.42
Br            7.500e-01
   Br-             7.500e-01   4.705e-01    -0.125    -0.327    -0.203     25.76
Cl            1.000e+00
   Cl-             1.000e+00   5.794e-01    -0.000    -0.237    -0.237     19.43
   HCl             1.132e-07   1.326e-06    -6.946    -5.878     1.068     20.36
H(0)          3.404e-22
   H2              1.702e-22   3.123e-22   -21.769   -21.505     0.264     14.99
K             7.500e-01
   K+              7.069e-01   3.987e-01    -0.151    -0.399    -0.249     10.57
   KSO4-           4.313e-02   7.938e-02    -1.365    -1.100     0.265     46.31
Na            1.000e+00
   Na+             9.042e-01   8.006e-01    -0.044    -0.097    -0.053      0.32
   NaSO4-          9.577e-02   9.203e-02    -1.019    -1.036    -0.017     27.20
   Na2SO4          2.154e-05   3.592e-05    -4.667    -4.445     0.222     47.96
O(0)          0.000e+00
   O2              0.000e+00   0.000e+00   -49.674   -49.423     0.251     30.40
S(6)          5.000e-01
   AmmHSO4-        2.309e-01   1.011e-01    -0.637    -0.995    -0.359     45.19
   SO4-2           1.302e-01   1.309e-02    -0.885    -1.883    -0.998     22.57
   NaSO4-          9.577e-02   9.203e-02    -1.019    -1.036    -0.017     27.20
   KSO4-           4.313e-02   7.938e-02    -1.365    -1.100     0.265     46.31
   Na2SO4          2.154e-05   3.592e-05    -4.667    -4.445     0.222     47.96
   HSO4-           7.169e-06   8.450e-06    -5.145    -5.073     0.071     41.53

------------------------------Saturation indices-------------------------------

  Phase               SI** log IAP   log K(298 K,   1 atm)

  Amm(g)           -6.33     -4.53    1.80  Amm
  Arcanite         -0.80     -2.68   -1.88  K2SO4
  H2(g)           -18.41    -21.51   -3.10  H2
  H2O(g)           -1.54     -0.04    1.50  H2O
  Halite           -1.90     -0.33    1.57  NaCl
  Mirabilite       -1.73     -2.43   -0.71  Na2SO4:10H2O
  O2(g)           -46.53    -49.42   -2.89  O2
  Sylvite          -1.54     -0.64    0.90  KCl
  Thenardite       -2.73     -2.08    0.65  Na2SO4

**For a gas, SI = log10(fugacity). Fugacity = pressure * phi / 1 atm.
  For ideal gases, phi = 1.

Initial solution 29.	

-----------------------------Solution composition------------------------------

	Elements           Molality       Moles

	Amm               1.000e+00   1.000e+00
	Br                1.000e+00   1.000e+00
	Cl                5.000e-01   5.000e-01
	K                 1.000e+00   1.000e+00
	Na                5.000e-01   5.000e-01
	S(6)              5.000e-01   5.000e-01

----------------------------Description of solution----------------------------

                                       pH  =   5.181      Charge balance
                                       pe  =   4.000    
      Specific Conductance (ÂµS/cm,  25Â°C)  = 196503
                          Density (g/cmÂł)  =   1.12354
                               Volume (L)  =   1.08078
                        Viscosity (mPa s)  =   0.98570
                        Activity of water  =   0.930
                 Ionic strength (mol/kgw)  =   2.271e+00
                       Mass of water (kg)  =   1.000e+00
                 Total alkalinity (eq/kg)  =  -7.715e-15
                         Temperature (Â°C)  =  25.00
                  Electrical balance (eq)  =   2.606e-11
 Percent error, 100*(Cat-|An|)/(Cat+|An|)  =   0.00
                               Iterations  =   7 (160 overall)
                                  Total H  = 1.120124e+02
                                  Total O  = 5.750622e+01

----------------------------Distribution of species----------------------------

                                               Log       Log       Log    mole V
   Species          Molality    Activity  Molality  Activity     Gamma   cmÂł/mol

   H+              9.127e-06   6.599e-06    -5.040    -5.181    -0.141      0.00
   OH-             2.725e-09   1.426e-09    -8.565    -8.846    -0.281     -0.24
   H2O             5.551e+01   9.297e-01     1.744    -0.032     0.000     18.07
Amm           1.000e+00
   AmmH+           7.573e-01   3.434e-01    -0.121    -0.464    -0.344     18.81
   AmmHSO4-        2.427e-01   1.111e-01    -0.615    -0.954    -0.339     44.62
   Amm             1.758e-05   2.965e-05    -4.755    -4.528     0.227     24.42
Br            1.000e+00
   Br-             1.000e+00   6.208e-01     0.000    -0.207    -0.207     25.72
Cl            5.000e-01
   Cl-             5.000e-01   2.903e-01    -0.301    -0.537    -0.236     19.37
   HCl             7.123e-08   6.598e-07    -7.147    -6.181     0.967     20.36
H(0)          3.560e-22
   H2              1.780e-22   3.082e-22   -21.750   -21.511     0.238     14.99
K             1.000e+00
   K+              9.310e-01   5.269e-01    -0.031    -0.278    -0.247     10.46
   KSO4-           6.898e-02   1.151e-01    -1.161    -0.939     0.222     45.26
Na            5.000e-01
   Na+             4.474e-01   3.823e-01    -0.349    -0.418    -0.068      0.24
   NaSO4-          5.260e-02   4.821e-02    -1.279    -1.317    -0.038     26.63
   Na2SO4          5.657e-06   8.987e-06    -5.247    -5.046     0.201     47.96
O(0)          0.000e+00
   O2              0.000e+00   0.000e+00   -49.631   -49.404     0.227     30.40
S(6)          5.000e-01
   AmmHSO4-        2.427e-01   1.111e-01    -0.615    -0.954    -0.339     44.62
   SO4-2           1.357e-01   1.436e-02    -0.867    -1.843    -0.976     21.88
   KSO4-           6.898e-02   1.151e-01    -1.161    -0.939     0.222     45.26
   NaSO4-          5.260e-02   4.821e-02    -1.279    -1.317    -0.038     26.63
   HSO4-           8.381e-06   9.210e-06    -5.077    -5.036     0.041     41.47
   Na2SO4          5.657e-06   8.987e-06    -5.247    -5.046     0.201     47.96

------------------------------Saturation indices-------------------------------

  Phase               SI** log IAP   log K(298 K,   1 atm)

  Amm(g)           -6.32     -4.53    1.80  Amm
  Arcanite         -0.52     -2.40   -1.88  K2SO4
  H2(g)           -18.41    -21.51   -3.10  H2
  H2O(g)           -1.53     -0.03    1.50  H2O
  Halite           -2.52     -0.95    1.57  NaCl
  Mirabilite       -2.29     -2.99   -0.71  Na2SO4:10H2O
  O2(g)           -46.51    -49.40   -2.89  O2
  Sylvite          -1.72     -0.82    0.90  KCl
  Thenardite       -3.33     -2.68    0.65  Na2SO4

**For a gas, SI = log10(fugacity). Fugacity = pressure * phi / 1 atm.
  For ideal gases, phi = 1.

Initial solution 30.	

-----------------------------Solution composition------------------------------

	Elements           Molality       Moles

	Amm               3.000e+00   3.000e+00
	Br                1.000e+00   1.000e+00
	Cl                5.000e-01   5.000e-01
	K                 1.000e+00   1.000e+00
	Na                5.000e-01   5.000e-01
	S(6)              1.500e+00   1.500e+00

----------------------------Description of solution----------------------------

                                       pH  =   5.066      Charge balance
                                       pe  =   4.000    
      Specific Conductance (ÂµS/cm,  25Â°C)  = 255560
                          Density (g/cmÂł)  =   1.17135
                               Volume (L)  =   1.14948
                        Viscosity (mPa s)  =   1.24277
                        Activity of water  =   0.893
                 Ionic strength (mol/kgw)  =   3.532e+00
                       Mass of water (kg)  =   1.000e+00
                 Total alkalinity (eq/kg)  =  -1.053e-14
                         Temperature (Â°C)  =  25.00
                  Electrical balance (eq)  =  -1.672e-10
 Percent error, 100*(Cat-|An|)/(Cat+|An|)  =  -0.00
                               Iterations  =   6 (166 overall)
                                  Total H  = 1.140124e+02
                                  Total O  = 6.150622e+01

----------------------------Distribution of species----------------------------

                                               Log       Log       Log    mole V
   Species          Molality    Activity  Molality  Activity     Gamma   cmÂł/mol

   H+              1.202e-05   8.583e-06    -4.920    -5.066    -0.146      0.00
   OH-             2.118e-09   1.054e-09    -8.674    -8.977    -0.303      1.48
   H2O             5.551e+01   8.935e-01     1.744    -0.049     0.000     18.07
Amm           3.000e+00
   AmmH+           1.902e+00   7.985e-01     0.279    -0.098    -0.377     18.96
   AmmHSO4-        1.098e+00   3.987e-01     0.041    -0.399    -0.440     47.35
   Amm             2.351e-05   5.301e-05    -4.629    -4.276     0.353     24.42
Br            1.000e+00
   Br-             1.000e+00   6.651e-01    -0.000    -0.177    -0.177     25.94
Cl            5.000e-01
   Cl-             5.000e-01   2.906e-01    -0.301    -0.537    -0.236     19.66
   HCl             2.697e-08   8.592e-07    -7.569    -6.066     1.503     20.36
H(0)          4.441e-22
   H2              2.221e-22   5.216e-22   -21.654   -21.283     0.371     14.99
K             1.000e+00
   K+              9.370e-01   5.266e-01    -0.028    -0.279    -0.250     11.04
   KSO4-           6.299e-02   1.775e-01    -1.201    -0.751     0.450     50.18
Na            5.000e-01
   Na+             4.273e-01   4.445e-01    -0.369    -0.352     0.017      0.64
   NaSO4-          7.272e-02   8.650e-02    -1.138    -1.063     0.075     29.39
   Na2SO4          9.129e-06   1.875e-05    -5.040    -4.727     0.313     47.96
O(0)          0.000e+00
   O2              0.000e+00   0.000e+00   -50.248   -49.895     0.353     30.40
S(6)          1.500e+00
   AmmHSO4-        1.098e+00   3.987e-01     0.041    -0.399    -0.440     47.35
   SO4-2           2.660e-01   2.215e-02    -0.575    -1.655    -1.079     25.42
   NaSO4-          7.272e-02   8.650e-02    -1.138    -1.063     0.075     29.39
   KSO4-           6.299e-02   1.775e-01    -1.201    -0.751     0.450     50.18
   HSO4-           1.146e-05   1.849e-05    -4.941    -4.733     0.208     41.72
   Na2SO4          9.129e-06   1.875e-05    -5.040    -4.727     0.313     47.96

------------------------------Saturation indices-------------------------------

  Phase               SI** log IAP   log K(298 K,   1 atm)

  Amm(g)           -6.07     -4.28    1.80  Amm
  Arcanite         -0.33     -2.21   -1.88  K2SO4
  H2(g)           -18.18    -21.28   -3.10  H2
  H2O(g)           -1.55     -0.05    1.50  H2O
  Halite           -2.46     -0.89    1.57  NaCl
  Mirabilite       -2.14     -2.85   -0.71  Na2SO4:10H2O
  O2(g)           -47.00    -49.90   -2.89  O2
  Sylvite          -1.72     -0.82    0.90  KCl
  Thenardite       -3.01     -2.36    0.65  Na2SO4

**For a gas, SI = log10(fugacity). Fugacity = pressure * phi / 1 atm.
  For ideal gases, phi = 1.

------------------
End of simulation.
------------------

------------------------------------
Reading input data for simulation 2.
------------------------------------

