WARNING: Database file from DATABASE keyword is used; command line argument ignored.
   Input file: negative_mix
  Output file: negative_mix.out
Database file: ../database/phreeqc.dat

------------------
Reading data base.
------------------

	SOLUTION_MASTER_SPECIES
	SOLUTION_SPECIES
	PHASES
	GAS_BINARY_PARAMETERS
	EXCHANGE_MASTER_SPECIES
	EXCHANGE_SPECIES
	SURFACE_MASTER_SPECIES
	SURFACE_SPECIES
	MEAN_GAMMAS
	RATES
	END
------------------------------------
Reading input data for simulation 1.
------------------------------------

	DATABASE ../database/phreeqc.dat
	SELECTED_OUTPUT 101
	    file                 negative_mix_101.sel
	USER_PUNCH 101
	    headings Mu SC
	    start
	10 PUNCH STR_F$(MU, 20, 12)
	20 PUNCH STR_F$(SC, 20, 10)
	    end
	SOLUTION 2 
	units mmol/kgw
	pressure 20
	temp     20
	pH 7 charge 
	density 1 calculate
	Na  100
	Cl  100
	water 1 kg       
	END
-------------------------------------------
Beginning of initial solution calculations.
-------------------------------------------

Initial solution 2.	

-----------------------------Solution composition------------------------------

	Elements           Molality       Moles

	Cl                1.000e-01   1.000e-01
	Na                1.000e-01   1.000e-01

----------------------------Description of solution----------------------------

                                       pH  =   7.066      Charge balance
                                       pe  =   4.000    
      Specific Conductance (µS/cm,  20°C)  = 9577
                          Density (g/cm³)  =   1.00322 (Iterated) 
                               Volume (L)  =   1.00261
                        Viscosity (mPa s)  =   1.01011
                        Activity of water  =   0.997
                 Ionic strength (mol/kgw)  =   1.000e-01
                       Mass of water (kg)  =   1.000e+00
                 Total alkalinity (eq/kg)  =  -1.724e-18
                         Temperature (°C)  =  20.00
                           Pressure (atm)  = 20.00
                  Electrical balance (eq)  =  -4.136e-14
 Percent error, 100*(Cat-|An|)/(Cat+|An|)  =  -0.00
                               Iterations  =   4 (8 overall)
                                  Total H  = 1.110124e+02
                                  Total O  = 5.550622e+01

----------------------------Distribution of species----------------------------

                                               Log       Log       Log    mole V
   Species          Molality    Activity  Molality  Activity     Gamma   cm³/mol

   OH-             1.059e-07   8.088e-08    -6.975    -7.092    -0.117     -3.87
   H+              1.038e-07   8.583e-08    -6.984    -7.066    -0.083      0.00
   H2O             5.551e+01   9.966e-01     1.744    -0.001     0.000     18.03
Cl            1.000e-01
   Cl-             1.000e-01   7.684e-02    -1.000    -1.114    -0.114     18.17
   HCl             2.122e-09   2.340e-09    -8.673    -8.631     0.043     20.00
H(0)          1.059e-25
   H2              5.293e-26   5.423e-26   -25.276   -25.266     0.011     14.62
Na            1.000e-01
   Na+             1.000e-01   7.869e-02    -1.000    -1.104    -0.104     -1.30
O(0)          0.000e+00
   O2              0.000e+00   0.000e+00   -43.541   -43.531     0.010     29.96

------------------------------Saturation indices-------------------------------

  Phase               SI** log IAP   log K(293 K,  20 atm)

  H2(g)           -22.17    -25.27   -3.09  H2
  H2O(g)           -1.63     -0.00    1.63  H2O
  Halite           -3.79     -2.22    1.57  NaCl
  O2(g)           -40.67    -43.53   -2.86  O2

**For a gas, SI = log10(fugacity). Fugacity = pressure * phi / 1 atm.
  For ideal gases, phi = 1.

------------------
End of simulation.
------------------

------------------------------------
Reading input data for simulation 2.
------------------------------------

	SOLUTION 1 Pure water
	pressure 10
	temp     10
	pH 7 charge
	density 1 calculate
	END
-------------------------------------------
Beginning of initial solution calculations.
-------------------------------------------

Initial solution 1.	Pure water

-----------------------------Solution composition------------------------------

	Elements           Molality       Moles

	Pure water     

----------------------------Description of solution----------------------------

                                       pH  =   7.264      Charge balance
                                       pe  =   4.000    
      Specific Conductance (µS/cm,  10°C)  = 0
                          Density (g/cm³)  =   1.00013 (Iterated) 
                               Volume (L)  =   0.99987
                        Viscosity (mPa s)  =   1.30509
                        Activity of water  =   1.000
                 Ionic strength (mol/kgw)  =   5.449e-08
                       Mass of water (kg)  =   1.000e+00
                 Total alkalinity (eq/kg)  =  -3.309e-22
                         Temperature (°C)  =  10.00
                           Pressure (atm)  = 10.00
                  Electrical balance (eq)  =   3.309e-22
 Percent error, 100*(Cat-|An|)/(Cat+|An|)  =   0.00
                               Iterations  =   4 (8 overall)
                                  Total H  = 1.110124e+02
                                  Total O  = 5.550622e+01

----------------------------Distribution of species----------------------------

                                               Log       Log       Log    mole V
   Species          Molality    Activity  Molality  Activity     Gamma   cm³/mol

   H+              5.449e-08   5.448e-08    -7.264    -7.264    -0.000      0.00
   OH-             5.449e-08   5.448e-08    -7.264    -7.264    -0.000     -4.96
   H2O             5.551e+01   1.000e+00     1.744    -0.000     0.000     18.01
H(0)          4.892e-26
   H2              2.446e-26   2.446e-26   -25.612   -25.612     0.000     13.65
O(0)          0.000e+00
   O2              0.000e+00   0.000e+00   -46.405   -46.405     0.000     28.94

------------------------------Saturation indices-------------------------------

  Phase               SI** log IAP   log K(283 K,  10 atm)

  H2(g)           -22.55    -25.61   -3.06  H2
  H2O(g)           -1.91     -0.00    1.91  H2O
  O2(g)           -43.63    -46.40   -2.77  O2

**For a gas, SI = log10(fugacity). Fugacity = pressure * phi / 1 atm.
  For ideal gases, phi = 1.

------------------
End of simulation.
------------------

------------------------------------
Reading input data for simulation 3.
------------------------------------

	MIX 1   
	1  -0.9          
	2   1.0
	END
-----------------------------------------
Beginning of batch-reaction calculations.
-----------------------------------------

Reaction step 1.

Using mix 1.	

Mixture 1.	

	 -9.000e-01 Solution 1	Pure water                                             
	  1.000e+00 Solution 2	                                                       

-----------------------------Solution composition------------------------------

	Elements           Molality       Moles

	Cl                1.000e+00   1.000e-01
	Na                1.000e+00   1.000e-01

----------------------------Description of solution----------------------------

                                       pH  =   7.045      Charge balance
                                       pe  =  11.302      Adjusted to redox equilibrium
      Specific Conductance (µS/cm,  20°C)  = 76428
                          Density (g/cm³)  =   1.03848
                               Volume (L)  =   0.10192
                        Viscosity (mPa s)  =   1.09068
                        Activity of water  =   0.966
                 Ionic strength (mol/kgw)  =   1.000e+00
                       Mass of water (kg)  =   1.000e-01
                 Total alkalinity (eq/kg)  =   5.260e-19
                         Temperature (°C)  =  20.00
                           Pressure (atm)  = 20.00
                  Electrical balance (eq)  =   1.453e-12
 Percent error, 100*(Cat-|An|)/(Cat+|An|)  =   0.00
                               Iterations  =  22
                                  Total H  = 1.110124e+01
                                  Total O  = 5.550622e+00

----------------------------Distribution of species----------------------------

                                               Log       Log       Log    mole V
   Species          Molality    Activity  Molality  Activity     Gamma   cm³/mol

   OH-             1.283e-07   7.460e-08    -6.892    -7.127    -0.235     -2.27
   H+              1.209e-07   9.007e-08    -6.917    -7.045    -0.128      0.00
   H2O             5.551e+01   9.660e-01     1.744    -0.015     0.000     18.03
Cl            1.000e+00
   Cl-             1.000e+00   6.113e-01    -0.000    -0.214    -0.214     18.77
   HCl             7.336e-09   1.955e-08    -8.135    -7.709     0.426     20.00
H(0)          2.331e-40
   H2              1.166e-40   1.485e-40   -39.933   -39.828     0.105     14.62
Na            1.000e+00
   Na+             1.000e+00   7.341e-01    -0.000    -0.134    -0.134     -0.47
O(0)          5.861e-15
   O2              2.930e-15   3.689e-15   -14.533   -14.433     0.100     29.96

------------------------------Saturation indices-------------------------------

  Phase               SI** log IAP   log K(293 K,  20 atm)

  H2(g)           -36.73    -39.83   -3.09  H2
  H2O(g)           -1.64     -0.02    1.63  H2O
  Halite           -1.92     -0.35    1.57  NaCl
  O2(g)           -11.57    -14.43   -2.86  O2

**For a gas, SI = log10(fugacity). Fugacity = pressure * phi / 1 atm.
  For ideal gases, phi = 1.

------------------
End of simulation.
------------------

------------------------------------
Reading input data for simulation 4.
------------------------------------

