WARNING: Database file from DATABASE keyword is used; command line argument ignored.
   Input file: netpathxl
  Output file: netpathxl.out
Database file: ../database/phreeqc.dat

------------------
Reading data base.
------------------

	SOLUTION_MASTER_SPECIES
	SOLUTION_SPECIES
	PHASES
	GAS_BINARY_PARAMETERS
	EXCHANGE_MASTER_SPECIES
	EXCHANGE_SPECIES
	SURFACE_MASTER_SPECIES
	SURFACE_SPECIES
	MEAN_GAMMAS
	RATES
	END
------------------------------------
Reading input data for simulation 1.
------------------------------------

	DATABASE ../database/phreeqc.dat
	SELECTED_OUTPUT 101
	    file                 netpathxl_101.sel
	USER_PUNCH 101
	    headings Mu SC
	    start
	10 PUNCH STR_F$(MU, 20, 12)
	20 PUNCH STR_F$(SC, 20, 10)
	    end
	SOLUTION_SPREAD
	 Number	                                     Description	 Units	 Redox	   Temp	    pH	 pe	       Ca	       Mg	        Na	       K	        Cl	   S(6)	   Alkalinity	         C(4)	    Fe	    Mn	    Al	     F	      Si	      Br	     I	     Ba	    Li	      Sr	   N(5)	  N(-3)	    P	 O(0)	 S(-2)	 N(0)	  C(-4)	     13C	     14C	 34S(6)	 34S(-2)	      2H	 3H	    18O	 87Sr	 15N(0)	 15N(5)	 15N(-3)	 15N(3)	 Density
	      	                                                	      	      	       	      	   	    as Ca	    as Mg	     as Na	    as K	     as Cl	 as SO4	 gfw 50.04289	 gfw 50.04289	 as Fe	 as Mn	 as Al	  as F	 as SiO2	   as Br	  as I	  as Ba	 as Li	   as Sr	   as N	   as N	 as P	 as O	  as S	 as N	 as CH4	        	        	       	        	        	   	       	     	       	       	        	       	        
	      1	       02S-01E-22 ABB 1   Chapman Line Camp well	  mg/l	    pe	 18.700	 6.860	   	  114.700	    8.109	    12.030	   0.922	     2.787	 19.007	      298.000	             	      	      	      	 0.200	        	   0.040	 0.002	  0.071	 0.005	   0.287	  1.053	  0.040	     	     	      	     	       	  -9.510	  95.850	       	        	 -29.500	   	 -4.940	     	       	       	        	       	        
	      2	                                01S-04E-03 ACA 1	  mg/l	    pe	 18.400	 6.900	   	   95.790	   49.580	    20.390	   1.674	    28.327	 31.544	      348.000	             	      	      	      	 0.200	        	   0.140	 0.003	  0.099	 0.001	   0.067	 14.409	  0.040	     	     	      	     	       	        	        	       	        	 -29.700	   	 -5.260	     	       	       	        	       	        
	      3	                                01S-05E-27 AAB 1	  mg/l	    pe	 18.300	 6.910	   	   80.810	   39.610	     4.934	   0.792	     8.370	 10.783	      329.000	             	      	      	      	 0.100	        	   0.080	 0.001	  0.213	 0.001	   0.065	  4.152	  0.040	     	     	      	     	       	        	        	       	        	 -29.000	   	 -4.930	     	       	       	        	       	        
	      4	       01S-06E-22 BCC 1        Washington Spring	  mg/l	    pe	 17.500	 7.100	   	   73.210	   38.930	     2.170	   1.199	     2.266	  4.905	      341.000	             	      	      	      	 0.200	        	   0.200	 0.001	  0.047	 0.001	   0.054	  0.763	  0.040	     	     	      	     	       	        	        	       	        	 -29.900	   	 -5.070	     	       	       	        	       	        
	      5	                                01S-06E-26 ADD 1	  mg/l	    pe	 18.400	 6.700	   	  103.600	   55.090	     8.656	   1.585	     9.819	 17.069	      443.000	             	      	      	      	 0.100	        	   0.090	 0.003	  0.064	 0.001	   0.068	  2.234	  0.040	     	     	      	     	       	        	        	       	        	 -30.600	   	 -5.210	     	       	       	        	       	        
	      6	                     01S-07E-23 BCC 1  Wood well	  mg/l	    pe	 18.400	 7.200	   	   84.790	   38.670	   141.100	   9.523	   279.139	 39.943	      258.000	             	      	      	      	 0.700	        	   0.960	 0.034	  0.079	 0.038	   2.480	      0	  0.304	     	     	      	     	       	  -8.440	   0.670	       	        	 -31.600	   	 -5.570	     	       	       	        	       	        
	      7	  02S-05E-08 ABB 1  Johnston County RWD 3 Well 1	  mg/l	    pe	 16.100	 6.970	   	   79.940	   34.500	     3.817	   0.845	     3.265	 11.735	      328.000	             	      	      	      	 0.200	        	   0.050	 0.004	  0.045	 0.001	   0.083	  0.599	  0.040	     	     	      	     	       	 -12.790	  99.800	       	        	 -27.700	   	 -5.050	     	       	       	        	       	        
	      8	                                02S-06E-11 DBC 1	  mg/l	    pe	 18.500	 7.050	   	   74.840	   39.070	     3.619	   2.517	     6.686	  9.128	      328.000	             	      	      	      	 0.100	        	   0.070	 0.003	  0.046	 0.000	   0.042	  5.472	  0.040	     	     	      	     	       	        	        	       	        	 -30.200	   	 -5.260	     	       	       	        	       	        
	      9	          02S-06E-18 CAA 1        Unnamed Spring	  mg/l	    pe	 17.400	 7.020	   	   76.650	   42.270	     2.146	   0.811	     2.432	  5.760	      358.000	             	      	      	      	 0.100	        	   0.120	 0.001	  0.044	 0.001	   0.063	  0.712	  0.040	     	     	      	     	       	        	        	       	        	 -29.400	   	 -5.200	     	       	       	        	       	        
	     10	                                02S-07E-05 CBA 1	  mg/l	    pe	 18.100	 7.200	   	   71.080	   31.440	     7.321	   1.419	     5.175	 16.605	      297.000	             	      	      	      	 0.200	        	   0.140	 0.003	  0.062	 0.005	   0.113	  0.066	  0.040	     	     	      	     	       	        	        	       	        	 -28.200	   	 -5.240	     	       	       	        	       	        
	     11	                                02S-07E-17 BCB 1	  mg/l	    pe	 19.500	 6.800	   	   78.080	   38.360	     1.612	   0.380	     1.815	  6.454	      338.000	             	      	      	      	 0.100	        	   0.050	 0.002	  0.036	 0.001	   0.062	  0.591	  0.040	     	     	      	     	       	        	        	       	        	 -29.200	   	 -5.080	     	       	       	        	       	        
	     12	                                03S-04E-04 BCD 1	  mg/l	    pe	 19.500	 6.880	   	  100.100	   22.960	     1.726	   0.470	     1.416	  5.523	      323.000	             	      	      	      	 0.200	        	   0.020	 0.002	  0.059	 0.002	   0.165	  0.417	  0.040	     	     	      	     	       	        	        	       	        	 -25.500	   	 -4.670	     	       	       	        	       	        
	     13	                                01S-01E-21 CDD 1	  mg/l	    pe	 19.800	 6.740	   	   96.500	   24.810	     1.630	   0.822	     1.715	  7.147	      326.000	             	      	      	      	 0.100	        	   0.040	 0.001	  0.045	 0.001	   0.078	  0.470	  0.040	     	     	      	     	       	        	        	       	        	 -33.500	   	 -5.640	     	       	       	        	       	        
	     14	 01S-03E-01 ABB 1 Antelope Spring at Sulphur, OK	  mg/l	    pe	 17.800	 7.090	   	   79.140	   35.390	     3.370	   1.483	     3.351	 16.875	      315.000	             	      	      	      	 0.100	        	   0.040	 0.004	  0.171	 0.001	   0.084	  0.170	  0.040	     	     	      	     	       	  -7.200	  66.250	       	        	 -28.800	   	 -5.060	     	       	       	        	       	        
	     15	            01S-03E-03 ABA 1        Vendome Well	  mg/l	    pe	 19.600	 7.140	   	   86.590	   37.370	   315.500	   9.598	   558.363	 35.141	      278.000	             	      	      	      	 0.700	        	   2.080	 0.062	  0.202	 0.066	   6.860	      0	  0.426	     	     	      	     	       	  -8.210	  11.970	       	        	 -31.200	   	 -5.400	     	       	       	        	       	        
	     16	                                01S-03E-24 BAA 1	  mg/l	    pe	 18.200	 6.930	   	   85.830	   47.630	    11.030	   2.106	    14.989	 35.329	      365.000	             	      	      	      	 0.200	        	   0.180	 0.003	  0.051	 0.003	   0.123	  1.144	  0.040	     	     	      	     	       	        	 100.000	       	        	 -27.600	   	 -4.560	     	       	       	        	       	        
	     17	                                01S-04E-05 DAD 1	  mg/l	    pe	 19.100	 6.700	   	  100.000	   30.000	     8.330	   0.956	     4.101	  9.492	      348.000	             	      	      	      	 0.100	        	   0.050	 0.002	  0.240	 0.001	   0.068	 14.409	  0.040	     	     	      	     	       	        	        	       	        	 -29.900	   	 -5.410	     	       	       	        	       	        
	     18	                                01S-04E-09 CCB 1	  mg/l	    pe	 18.300	 6.730	   	  133.000	   16.080	    13.190	  12.820	    17.229	 49.186	      333.000	             	      	      	      	 0.200	        	   0.120	 0.002	  0.079	 0.001	   0.176	  5.322	  0.040	     	     	      	     	       	        	        	       	        	 -30.500	   	 -5.350	     	       	       	        	       	        
	     19	                                02S-01E-02 CBA 1	  mg/l	    pe	 17.900	 6.750	   	  134.000	    4.975	     1.810	   0.525	     1.605	  8.459	      325.000	             	      	      	      	 0.100	        	   0.050	 0.001	  0.088	 0.002	   0.441	  0.172	  0.040	     	     	      	     	       	        	        	       	        	 -30.400	   	 -5.280	     	       	       	        	       	        
	     20	                                02S-01W-03 CCD 1	  mg/l	    pe	 18.000	 6.820	   	  121.200	    7.308	     1.495	   0.463	     1.220	 14.924	      319.000	             	      	      	      	 0.200	        	   0.200	 0.001	  0.095	 0.004	   1.350	  0.162	  0.040	     	     	      	     	       	        	        	       	        	 -30.600	   	 -5.340	     	       	       	        	       	        
	     21	                                02S-02E-18 BDB 1	  mg/l	    pe	 18.600	 6.950	   	  120.900	    6.960	     3.056	   0.912	     3.324	  6.580	      308.000	             	      	      	      	 0.200	        	   0.040	 0.001	  0.083	 0.002	   0.163	  0.044	  0.040	     	     	      	     	       	        	        	       	        	 -35.600	   	 -5.830	     	       	       	        	       	        
	     22	                                02S-03E-10 CDD 1	  mg/l	    pe	 18.600	 7.100	   	   77.540	    3.128	     3.149	   0.368	     2.945	 12.290	      179.000	             	      	      	      	 0.100	        	   0.070	 0.001	  0.035	 0.001	   0.069	  1.258	  0.040	     	     	      	     	       	        	        	       	        	 -27.800	   	 -4.970	     	       	       	        	       	        
	     23	                                02S-04E-09 DAB 1	  mg/l	    pe	 20.600	 6.780	   	   79.680	   33.060	     3.877	  11.440	     5.652	  7.458	      303.000	             	      	      	      	 0.100	        	   0.030	 0.005	  0.047	 0.001	   0.156	  7.597	  0.040	     	     	      	     	       	        	        	       	        	 -24.000	   	 -4.230	     	       	       	        	       	        
	     24	                                02S-04E-28 DCB 1	  mg/l	    pe	 18.900	 6.990	   	   70.420	   33.170	     4.093	   1.104	     6.257	  8.218	      283.000	             	      	      	      	 0.100	        	   0.050	 0.001	  0.051	 0.001	   0.111	  2.611	  0.040	     	     	      	     	       	        	        	       	        	 -27.900	   	 -4.890	     	       	       	        	       	        
	     25	                                01N-05E-22 CBB 1	  mg/l	    pe	 16.700	 6.990	   	   63.220	   26.320	     1.965	   3.516	     2.283	 10.682	      256.000	             	      	      	      	 0.100	        	        	 0.002	  0.057	 0.000	   0.043	  1.197	  0.040	     	     	      	     	       	        	        	       	        	 -35.200	   	 -6.390	     	       	       	        	       	        
	     26	                                01N-06E-07 CDC 1	  mg/l	    pe	 19.100	 7.050	   	   67.600	   35.190	     1.183	   0.783	     1.855	  5.471	      288.000	             	      	      	      	 0.100	        	   0.050	 0.002	  0.038	 0.001	   0.023	  2.594	  0.040	     	     	      	     	       	        	        	       	        	 -28.700	   	 -5.140	     	       	       	        	       	        
	     27	                                01N-07E-30 DBB 1	  mg/l	    pe	 18.800	 6.750	   	  108.500	   19.290	     3.381	   0.577	     2.714	 11.481	      333.000	             	      	      	      	 0.100	        	   0.030	 0.001	  0.060	 0.001	   0.076	  2.611	  0.040	     	     	      	     	       	        	        	       	        	 -32.400	   	 -5.340	     	       	       	        	       	        
	     28	                                02N-05E-17 BDD 1	  mg/l	    pe	 18.400	 6.950	   	   76.890	   35.410	     5.811	   2.030	    13.396	 15.180	      296.000	             	      	      	      	 0.200	        	   0.070	 0.002	  0.088	 0.001	   0.072	  1.227	  0.040	     	     	      	     	       	        	        	       	        	 -31.300	   	 -5.430	     	       	       	        	       	        
	     29	                                02N-06E-32 CBC 1	  mg/l	    pe	 17.700	 6.700	   	  118.200	   77.480	     7.970	   2.473	    10.752	 50.573	      546.000	             	      	      	      	 0.200	        	   0.280	 0.007	  0.119	 0.001	   0.086	  2.948	  0.040	     	     	      	     	       	        	        	       	        	 -33.600	   	 -5.730	     	       	       	        	       	        
	     30	              02N-06E-34 CCD 1 Byrds Mill Spring	  mg/l	    pe	 18.200	 7.100	   	   73.100	   36.600	     4.200	   1.510	     3.930	  8.200	      330.000	             	      	      	      	 0.100	        	        	 0.002	  0.051	 0.002	   0.161	  0.880	  0.040	     	     	      	     	       	  -7.970	  72.760	       	        	 -29.700	   	 -5.140	     	       	       	        	       	        
	     31	                 01S-02E-01 DCB 1 Harrison, Nace	  mg/l	    pe	 33.100	 6.500	   	 3600.000	 1220.000	 27300.000	 280.000	 54400.000	 18.000	      172.000	             	      	      	      	 0.500	        	 209.000	 5.940	 29.800	 4.490	 206.000	      0	 36.600	     	     	      	     	       	   8.780	   3.810	       	        	 -17.600	   	 -1.540	     	       	       	        	       	        
	SOLUTION_SPREAD
	 Number	   Description	    Units	 Redox	   Temp	     pH	    pe	  Ca	   Mg	   Na	    K	   Cl	 S(6)	 Alkalinity	 C(4)	    Fe	    Mn	    Al	     F	    Si	    Br	     I	    Ba	    Li	    Sr	 xNO3-	 xNH4+	     P	  O(0)	 S(-2)	  N(0)	 C(-4)	    13C	     14C	 34S(6)	 34S(-2)	    2H	    3H	   18O	 87Sr	 15N(0)	 15N(5)	 15N(-3)	 15N(3)	 Density
	      	              	         	      	       	 charge	      	    	     	     	     	     	     	           	     	      	      	      	      	      	      	      	      	      	      	      	      	      	      	      	      	      	       	        	       	        	      	      	      	     	       	       	        	       	        
	     32	 Precipitation	 mmol/kgw	    pe	 17.000	    4.8	 0.000	 0.1	 0.02	 0.06	 0.01	 0.07	  .13	           	    0	 0.000	 0.000	 0.000	 0.000	 0.000	 0.000	 0.000	 0.000	 0.000	 0.000	   .17	   .15	 0.000	 0.000	 0.000	 0.000	 0.000	 -7.000	 100.000	  0.000	   0.000	 0.000	 0.000	 0.000	     	       	       	        	       	        
	SOLUTION_MASTER_SPECIES
	I	 I-		0.0	I		126.9045
	SOLUTION_SPECIES
	I- =  I- 
		log_k 0
		delta_h	0	kJ/mol	# Calculated enthalpy of reaction	I-
	EXCHANGE_SPECIES
		0.5Ca+2 + 0.5Mg+2 + 2X- = Ca0.5Mg0.5X2
		log_k 0
		0.75Ca+2 + 0.25Mg+2 + 2X- = Ca0.75Mg0.25X2
		log_k 0
	PHASES
		CH2O
		CH2O = 0.5CH4 + 0.5CO2
		log_k 0
		CH2O(NH3).1
		CH2O(NH3).1 = 0.5CH4 + 0.5CO2 + 0.1NH3
		log_k 0
		NaBr
		NaBr = Na+ + Br-
		log_k 0
	END
-------------------------------------------
Beginning of initial solution calculations.
-------------------------------------------

Initial solution 1.	 02S-01E-22 ABB 1   Chapman Line Camp well 

-----------------------------Solution composition------------------------------

	Elements           Molality       Moles

	Alkalinity        5.958e-03   5.958e-03
	Ba                5.172e-07   5.172e-07
	Br                5.008e-07   5.008e-07
	Ca                2.863e-03   2.863e-03
	Cl                7.865e-05   7.865e-05
	F                 1.053e-05   1.053e-05
	I                 1.577e-08   1.577e-08
	K                 2.359e-05   2.359e-05
	Li                7.209e-07   7.209e-07
	Mg                3.337e-04   3.337e-04
	N(-3)             2.857e-06   2.857e-06
	N(5)              7.521e-05   7.521e-05
	Na                5.235e-04   5.235e-04
	S(6)              1.979e-04   1.979e-04
	Sr                3.277e-06   3.277e-06

----------------------------Description of solution----------------------------

                                       pH  =   6.860    
                                       pe  =   4.000    
      Specific Conductance (µS/cm,  19°C)  = 547
                          Density (g/cm³)  =   0.99891
                               Volume (L)  =   1.00169
                        Viscosity (mPa s)  =   1.03813
                        Activity of water  =   1.000
                 Ionic strength (mol/kgw)  =   9.971e-03
                       Mass of water (kg)  =   1.000e+00
                    Total carbon (mol/kg)  =   7.772e-03
                       Total CO2 (mol/kg)  =   7.772e-03
                         Temperature (°C)  =  18.70
                  Electrical balance (eq)  =   4.334e-04
 Percent error, 100*(Cat-|An|)/(Cat+|An|)  =   3.26
                               Iterations  =   9
                                  Total H  = 1.110184e+02
                                  Total O  = 5.552873e+01

---------------------------------Redox couples---------------------------------

	Redox couple             pe  Eh (volts)

	N(-3)/N(5)           6.8575      0.3971

----------------------------Distribution of species----------------------------

                                               Log       Log       Log    mole V
   Species          Molality    Activity  Molality  Activity     Gamma   cm³/mol

   H+              1.510e-07   1.380e-07    -6.821    -6.860    -0.039      0.00
   OH-             4.954e-08   4.464e-08    -7.305    -7.350    -0.045     -4.33
   H2O             5.551e+01   9.998e-01     1.744    -0.000     0.000     18.04
Ba            5.172e-07
   Ba+2            5.009e-07   3.441e-07    -6.300    -6.463    -0.163    -13.77
   BaHCO3+         1.609e-08   1.453e-08    -7.793    -7.838    -0.044     (0)  
   BaCO3           2.485e-10   2.491e-10    -9.605    -9.604     0.001    -10.76
   BaOH+           9.330e-14   8.445e-14   -13.030   -13.073    -0.043     (0)  
Br            5.008e-07
   Br-             5.008e-07   4.511e-07    -6.300    -6.346    -0.045     24.29
C(4)          7.772e-03
   HCO3-           5.927e-03   5.372e-03    -2.227    -2.270    -0.043     24.15
   CO2             1.821e-03   1.824e-03    -2.740    -2.739     0.001     34.50
   MgHCO3+         1.445e-05   1.304e-05    -4.840    -4.885    -0.045      5.33
   CaCO3           4.551e-06   4.562e-06    -5.342    -5.341     0.001    -14.62
   CO3-2           2.359e-06   1.590e-06    -5.627    -5.799    -0.171     -5.02
   NaHCO3          1.165e-06   1.169e-06    -5.934    -5.932     0.002     17.12
   MgCO3           2.920e-07   2.927e-07    -6.535    -6.534     0.001    -17.08
   SrHCO3+         1.520e-07   1.377e-07    -6.818    -6.861    -0.043     (0)  
   KHCO3           4.569e-08   4.580e-08    -7.340    -7.339     0.001     20.92
   (CO2)2          3.853e-08   3.858e-08    -7.414    -7.414     0.001     68.16
   BaHCO3+         1.609e-08   1.453e-08    -7.793    -7.838    -0.044     (0)  
   SrCO3           1.748e-09   1.752e-09    -8.757    -8.756     0.001    -14.15
   BaCO3           2.485e-10   2.491e-10    -9.605    -9.604     0.001    -10.76
   CaHCO3+         2.448e-10   2.222e-10    -9.611    -9.653    -0.042      9.46
Ca            2.863e-03
   Ca+2            2.834e-03   1.909e-03    -2.548    -2.719    -0.172    -18.02
   CaSO4           2.426e-05   2.429e-05    -4.615    -4.615     0.000      6.50
   CaCO3           4.551e-06   4.562e-06    -5.342    -5.341     0.001    -14.62
   CaOH+           2.541e-09   2.295e-09    -8.595    -8.639    -0.044     (0)  
   CaHCO3+         2.448e-10   2.222e-10    -9.611    -9.653    -0.042      9.46
   CaHSO4+         3.357e-11   3.031e-11   -10.474   -10.518    -0.044     (0)  
Cl            7.865e-05
   Cl-             7.865e-05   7.093e-05    -4.104    -4.149    -0.045     17.91
   HCl             3.473e-12   3.507e-12   -11.459   -11.455     0.004     19.89
F             1.053e-05
   F-              1.040e-05   9.372e-06    -4.983    -5.028    -0.045     -1.48
   MgF+            1.296e-07   1.171e-07    -6.887    -6.931    -0.044    -10.52
   HF              1.731e-09   1.735e-09    -8.762    -8.761     0.001     12.19
   KF              4.358e-11   4.358e-11   -10.361   -10.361    -0.000      0.31
   NaF             1.478e-11   1.485e-11   -10.830   -10.828     0.002      8.22
   HF2-            6.546e-14   5.911e-14   -13.184   -13.228    -0.044     21.79
H(0)          2.870e-25
   H2              1.435e-25   1.438e-25   -24.843   -24.842     0.001     14.49
I             1.577e-08
   I-              1.577e-08   1.424e-08    -7.802    -7.847    -0.044     (0)  
K             2.359e-05
   K+              2.351e-05   2.119e-05    -4.629    -4.674    -0.045      8.84
   KHCO3           4.569e-08   4.580e-08    -7.340    -7.339     0.001     20.92
   KSO4-           3.902e-08   3.551e-08    -7.409    -7.450    -0.041     20.90
   KF              4.358e-11   4.358e-11   -10.361   -10.361    -0.000      0.31
Li            7.209e-07
   Li+             7.205e-07   6.539e-07    -6.142    -6.184    -0.042     -1.16
   LiSO4-          3.548e-10   3.211e-10    -9.450    -9.493    -0.043     (0)  
Mg            3.337e-04
   Mg+2            3.135e-04   2.125e-04    -3.504    -3.673    -0.169    -21.39
   MgHCO3+         1.445e-05   1.304e-05    -4.840    -4.885    -0.045      5.33
   MgSO4           5.297e-06   5.321e-06    -5.276    -5.274     0.002     -0.99
   MgCO3           2.920e-07   2.927e-07    -6.535    -6.534     0.001    -17.08
   MgF+            1.296e-07   1.171e-07    -6.887    -6.931    -0.044    -10.52
   MgOH+           3.439e-09   3.125e-09    -8.464    -8.505    -0.042     (0)  
   Mg(SO4)2-2      3.237e-09   2.221e-09    -8.490    -8.653    -0.164     35.80
N(-3)         2.857e-06
   NH4+            2.844e-06   2.555e-06    -5.546    -5.593    -0.047     17.69
   NH3             6.677e-09   6.692e-09    -8.175    -8.174     0.001     24.12
   NH4SO4-         6.186e-09   5.619e-09    -8.209    -8.250    -0.042     33.84
N(5)          7.521e-05
   NO3-            7.521e-05   6.767e-05    -4.124    -4.170    -0.046     28.89
Na            5.235e-04
   Na+             5.219e-04   4.720e-04    -3.282    -3.326    -0.044     -1.74
   NaHCO3          1.165e-06   1.169e-06    -5.934    -5.932     0.002     17.12
   NaSO4-          4.813e-07   4.348e-07    -6.318    -6.362    -0.044     16.75
   NaF             1.478e-11   1.485e-11   -10.830   -10.828     0.002      8.22
   Na2SO4          5.235e-14   5.245e-14   -13.281   -13.280     0.001     51.36
O(0)          0.000e+00
   O2              0.000e+00   0.000e+00   -44.818   -44.817     0.001     29.87
S(6)          1.979e-04
   SO4-2           1.678e-04   1.125e-04    -3.775    -3.949    -0.174     13.67
   CaSO4           2.426e-05   2.429e-05    -4.615    -4.615     0.000      6.50
   MgSO4           5.297e-06   5.321e-06    -5.276    -5.274     0.002     -0.99
   NaSO4-          4.813e-07   4.348e-07    -6.318    -6.362    -0.044     16.75
   SrSO4           4.219e-08   4.228e-08    -7.375    -7.374     0.001     23.98
   KSO4-           3.902e-08   3.551e-08    -7.409    -7.450    -0.041     20.90
   NH4SO4-         6.186e-09   5.619e-09    -8.209    -8.250    -0.042     33.84
   Mg(SO4)2-2      3.237e-09   2.221e-09    -8.490    -8.653    -0.164     35.80
   HSO4-           1.463e-09   1.321e-09    -8.835    -8.879    -0.044     39.86
   LiSO4-          3.548e-10   3.211e-10    -9.450    -9.493    -0.043     (0)  
   CaHSO4+         3.357e-11   3.031e-11   -10.474   -10.518    -0.044     (0)  
   Na2SO4          5.235e-14   5.245e-14   -13.281   -13.280     0.001     51.36
Sr            3.277e-06
   Sr+2            3.081e-06   2.079e-06    -5.511    -5.682    -0.171    -17.67
   SrHCO3+         1.520e-07   1.377e-07    -6.818    -6.861    -0.043     (0)  
   SrSO4           4.219e-08   4.228e-08    -7.375    -7.374     0.001     23.98
   SrCO3           1.748e-09   1.752e-09    -8.757    -8.756     0.001    -14.15
   SrOH+           8.534e-13   7.724e-13   -12.069   -12.112    -0.043     (0)  

------------------------------Saturation indices-------------------------------

  Phase               SI** log IAP   log K(291 K,   1 atm)

  Anhydrite        -2.45     -6.67   -4.22  CaSO4
  Aragonite        -0.22     -8.52   -8.30  CaCO3
  Arcanite        -11.33    -13.30   -1.97  K2SO4
  Barite           -0.45    -10.41   -9.96  BaSO4
  Calcite          -0.12     -8.52   -8.40  CaCO3
  Celestite        -3.01     -9.63   -6.62  SrSO4
  CO2(g)           -1.35     -2.74   -1.39  CO2
  Dolomite         -1.00    -17.99  -16.98  CaMg(CO3)2
  Epsomite         -5.84     -7.62   -1.78  MgSO4:7H2O
  Fluorite         -2.12    -12.78  -10.66  CaF2
  Gypsum           -2.14     -6.67   -4.53  CaSO4:2H2O
  H2(g)           -21.76    -24.84   -3.09  H2
  H2O(g)           -1.67     -0.00    1.67  H2O
  Halite           -9.04     -7.48    1.56  NaCl
  Hexahydrite      -6.05     -7.62   -1.58  MgSO4:6H2O
  Kieserite        -6.41     -7.62   -1.21  MgSO4:H2O
  Mirabilite       -9.44    -10.60   -1.16  Na2SO4:10H2O
  NaBr             -9.67     -9.67    0.00  NaBr
  NH3(g)          -10.11     -8.17    1.93  NH3
  O2(g)           -41.97    -44.82   -2.84  O2
  Strontianite     -2.21    -11.48   -9.27  SrCO3
  Sylvite          -9.69     -8.82    0.87  KCl
  Thenardite      -11.33    -10.60    0.73  Na2SO4
  Witherite        -3.68    -12.26   -8.58  BaCO3

**For a gas, SI = log10(fugacity). Fugacity = pressure * phi / 1 atm.
  For ideal gases, phi = 1.

Initial solution 2.	 01S-04E-03 ACA 1 

-----------------------------Solution composition------------------------------

	Elements           Molality       Moles

	Alkalinity        6.958e-03   6.958e-03
	Ba                7.213e-07   7.213e-07
	Br                1.753e-06   1.753e-06
	Ca                2.391e-03   2.391e-03
	Cl                7.995e-04   7.995e-04
	F                 1.053e-05   1.053e-05
	I                 2.365e-08   2.365e-08
	K                 4.284e-05   4.284e-05
	Li                1.442e-07   1.442e-07
	Mg                2.041e-03   2.041e-03
	N(-3)             2.857e-06   2.857e-06
	N(5)              1.029e-03   1.029e-03
	Na                8.874e-04   8.874e-04
	S(6)              3.286e-04   3.286e-04
	Sr                7.651e-07   7.651e-07

----------------------------Description of solution----------------------------

                                       pH  =   6.900    
                                       pe  =   4.000    
      Specific Conductance (µS/cm,  18°C)  = 774
                          Density (g/cm³)  =   0.99912
                               Volume (L)  =   1.00168
                        Viscosity (mPa s)  =   1.04689
                        Activity of water  =   1.000
                 Ionic strength (mol/kgw)  =   1.389e-02
                       Mass of water (kg)  =   1.000e+00
                    Total carbon (mol/kg)  =   8.846e-03
                       Total CO2 (mol/kg)  =   8.846e-03
                         Temperature (°C)  =  18.40
                  Electrical balance (eq)  =   3.437e-04
 Percent error, 100*(Cat-|An|)/(Cat+|An|)  =   1.83
                               Iterations  =   9 (18 overall)
                                  Total H  = 1.110194e+02
                                  Total O  = 5.553526e+01

---------------------------------Redox couples---------------------------------

	Redox couple             pe  Eh (volts)

	N(-3)/N(5)           6.9676      0.4031

----------------------------Distribution of species----------------------------

                                               Log       Log       Log    mole V
   Species          Molality    Activity  Molality  Activity     Gamma   cm³/mol

   H+              1.394e-07   1.259e-07    -6.856    -6.900    -0.044      0.00
   OH-             5.389e-08   4.776e-08    -7.269    -7.321    -0.052     -4.32
   H2O             5.551e+01   9.997e-01     1.744    -0.000     0.000     18.04
Ba            7.213e-07
   Ba+2            6.966e-07   4.540e-07    -6.157    -6.343    -0.186    -13.72
   BaHCO3+         2.430e-08   2.160e-08    -7.614    -7.666    -0.051     (0)  
   BaCO3           4.032e-10   4.045e-10    -9.394    -9.393     0.001    -10.77
   BaOH+           1.370e-13   1.222e-13   -12.863   -12.913    -0.050     (0)  
Br            1.753e-06
   Br-             1.753e-06   1.553e-06    -5.756    -5.809    -0.053     24.29
C(4)          8.846e-03
   HCO3-           6.841e-03   6.110e-03    -2.165    -2.214    -0.049     24.17
   CO2             1.897e-03   1.901e-03    -2.722    -2.721     0.001     34.48
   MgHCO3+         9.552e-05   8.484e-05    -4.020    -4.071    -0.052      5.33
   CaCO3           4.402e-06   4.416e-06    -5.356    -5.355     0.001    -14.62
   CO3-2           3.098e-06   1.969e-06    -5.509    -5.706    -0.197     -4.97
   NaHCO3          2.200e-06   2.211e-06    -5.658    -5.655     0.002     17.09
   MgCO3           2.059e-06   2.065e-06    -5.686    -5.685     0.001    -17.08
   KHCO3           9.220e-08   9.249e-08    -7.035    -7.034     0.001     20.89
   (CO2)2          4.114e-08   4.123e-08    -7.386    -7.385     0.001     68.13
   SrHCO3+         3.794e-08   3.387e-08    -7.421    -7.470    -0.049     (0)  
   BaHCO3+         2.430e-08   2.160e-08    -7.614    -7.666    -0.051     (0)  
   SrCO3           4.684e-10   4.699e-10    -9.329    -9.328     0.001    -14.16
   BaCO3           4.032e-10   4.045e-10    -9.394    -9.393     0.001    -10.77
   CaHCO3+         2.070e-10   1.852e-10    -9.684    -9.732    -0.048      9.45
Ca            2.391e-03
   Ca+2            2.360e-03   1.499e-03    -2.627    -2.824    -0.197    -17.98
   CaSO4           2.715e-05   2.719e-05    -4.566    -4.566     0.001      6.47
   CaCO3           4.402e-06   4.416e-06    -5.356    -5.355     0.001    -14.62
   CaOH+           2.222e-09   1.976e-09    -8.653    -8.704    -0.051     (0)  
   CaHCO3+         2.070e-10   1.852e-10    -9.684    -9.732    -0.048      9.45
   CaHSO4+         3.495e-11   3.107e-11   -10.457   -10.508    -0.051     (0)  
Cl            7.995e-04
   Cl-             7.995e-04   7.094e-04    -3.097    -3.149    -0.052     17.92
   HCl             3.162e-11   3.205e-11   -10.500   -10.494     0.006     19.86
F             1.053e-05
   F-              9.835e-06   8.718e-06    -5.007    -5.060    -0.052     -1.46
   MgF+            6.967e-07   6.200e-07    -6.157    -6.208    -0.051    -10.51
   HF              1.459e-09   1.464e-09    -8.836    -8.834     0.001     12.17
   KF              7.193e-11   7.191e-11   -10.143   -10.143    -0.000      0.35
   NaF             2.267e-11   2.282e-11   -10.645   -10.642     0.003      8.26
   HF2-            5.205e-14   4.627e-14   -13.284   -13.335    -0.051     21.79
H(0)          2.392e-25
   H2              1.196e-25   1.200e-25   -24.922   -24.921     0.001     14.46
I             2.365e-08
   I-              2.365e-08   2.103e-08    -7.626    -7.677    -0.051     (0)  
K             4.284e-05
   K+              4.264e-05   3.782e-05    -4.370    -4.422    -0.052      8.85
   KSO4-           1.015e-07   9.120e-08    -6.993    -7.040    -0.047     21.43
   KHCO3           9.220e-08   9.249e-08    -7.035    -7.034     0.001     20.89
   KF              7.193e-11   7.191e-11   -10.143   -10.143    -0.000      0.35
Li            1.442e-07
   Li+             1.441e-07   1.289e-07    -6.841    -6.890    -0.048     -1.14
   LiSO4-          1.023e-10   9.120e-11    -9.990   -10.040    -0.050     (0)  
Mg            2.041e-03
   Mg+2            1.899e-03   1.216e-03    -2.721    -2.915    -0.193    -21.33
   MgHCO3+         9.552e-05   8.484e-05    -4.020    -4.071    -0.052      5.33
   MgSO4           4.325e-05   4.353e-05    -4.364    -4.361     0.003     -1.02
   MgCO3           2.059e-06   2.065e-06    -5.686    -5.685     0.001    -17.08
   MgF+            6.967e-07   6.200e-07    -6.157    -6.208    -0.051    -10.51
   Mg(SO4)2-2      4.046e-08   2.633e-08    -7.393    -7.580    -0.187     36.32
   MgOH+           2.127e-08   1.907e-08    -7.672    -7.720    -0.048     (0)  
N(-3)         2.857e-06
   NH4+            2.842e-06   2.508e-06    -5.546    -5.601    -0.054     17.69
   NH4SO4-         8.809e-09   7.890e-09    -8.055    -8.103    -0.048     33.99
   NH3             7.023e-09   7.045e-09    -8.153    -8.152     0.001     24.10
N(5)          1.029e-03
   NO3-            1.029e-03   9.105e-04    -2.987    -3.041    -0.053     28.87
Na            8.874e-04
   Na+             8.841e-04   7.875e-04    -3.054    -3.104    -0.050     -1.74
   NaHCO3          2.200e-06   2.211e-06    -5.658    -5.655     0.002     17.09
   NaSO4-          1.171e-06   1.041e-06    -5.931    -5.982    -0.051     16.84
   NaF             2.267e-11   2.282e-11   -10.645   -10.642     0.003      8.26
   Na2SO4          2.025e-13   2.031e-13   -12.694   -12.692     0.001     51.53
O(0)          0.000e+00
   O2              0.000e+00   0.000e+00   -44.766   -44.764     0.001     29.84
S(6)          3.286e-04
   SO4-2           2.568e-04   1.620e-04    -3.590    -3.790    -0.200     13.64
   MgSO4           4.325e-05   4.353e-05    -4.364    -4.361     0.003     -1.02
   CaSO4           2.715e-05   2.719e-05    -4.566    -4.566     0.001      6.47
   NaSO4-          1.171e-06   1.041e-06    -5.931    -5.982    -0.051     16.84
   KSO4-           1.015e-07   9.120e-08    -6.993    -7.040    -0.047     21.43
   Mg(SO4)2-2      4.046e-08   2.633e-08    -7.393    -7.580    -0.187     36.32
   SrSO4           1.322e-08   1.326e-08    -7.879    -7.878     0.001     23.96
   NH4SO4-         8.809e-09   7.890e-09    -8.055    -8.103    -0.048     33.99
   HSO4-           1.939e-09   1.724e-09    -8.712    -8.763    -0.051     39.85
   LiSO4-          1.023e-10   9.120e-11    -9.990   -10.040    -0.050     (0)  
   CaHSO4+         3.495e-11   3.107e-11   -10.457   -10.508    -0.051     (0)  
   Na2SO4          2.025e-13   2.031e-13   -12.694   -12.692     0.001     51.53
Sr            7.651e-07
   Sr+2            7.135e-07   4.543e-07    -6.147    -6.343    -0.196    -17.61
   SrHCO3+         3.794e-08   3.387e-08    -7.421    -7.470    -0.049     (0)  
   SrSO4           1.322e-08   1.326e-08    -7.879    -7.878     0.001     23.96
   SrCO3           4.684e-10   4.699e-10    -9.329    -9.328     0.001    -14.16
   SrOH+           2.075e-13   1.850e-13   -12.683   -12.733    -0.050     (0)  

------------------------------Saturation indices-------------------------------

  Phase               SI** log IAP   log K(291 K,   1 atm)

  Anhydrite        -2.40     -6.61   -4.21  CaSO4
  Aragonite        -0.23     -8.53   -8.30  CaCO3
  Arcanite        -10.66    -12.64   -1.97  K2SO4
  Barite           -0.17    -10.13   -9.97  BaSO4
  Calcite          -0.13     -8.53   -8.40  CaCO3
  Celestite        -3.51    -10.13   -6.62  SrSO4
  CO2(g)           -1.33     -2.72   -1.39  CO2
  Dolomite         -0.17    -17.15  -16.98  CaMg(CO3)2
  Epsomite         -4.93     -6.71   -1.78  MgSO4:7H2O
  Fluorite         -2.29    -12.94  -10.66  CaF2
  Gypsum           -2.09     -6.61   -4.53  CaSO4:2H2O
  H2(g)           -21.84    -24.92   -3.08  H2
  H2O(g)           -1.68     -0.00    1.68  H2O
  Halite           -7.82     -6.25    1.56  NaCl
  Hexahydrite      -5.13     -6.71   -1.58  MgSO4:6H2O
  Kieserite        -5.49     -6.71   -1.21  MgSO4:H2O
  Mirabilite       -8.82    -10.00   -1.18  Na2SO4:10H2O
  NaBr             -8.91     -8.91    0.00  NaBr
  NH3(g)          -10.09     -8.15    1.94  NH3
  O2(g)           -41.92    -44.76   -2.84  O2
  Strontianite     -2.78    -12.05   -9.27  SrCO3
  Sylvite          -8.44     -7.57    0.87  KCl
  Thenardite      -10.74    -10.00    0.74  Na2SO4
  Witherite        -3.47    -12.05   -8.58  BaCO3

**For a gas, SI = log10(fugacity). Fugacity = pressure * phi / 1 atm.
  For ideal gases, phi = 1.

Initial solution 3.	 01S-05E-27 AAB 1 

-----------------------------Solution composition------------------------------

	Elements           Molality       Moles

	Alkalinity        6.578e-03   6.578e-03
	Ba                1.552e-06   1.552e-06
	Br                1.002e-06   1.002e-06
	Ca                2.017e-03   2.017e-03
	Cl                2.362e-04   2.362e-04
	F                 5.266e-06   5.266e-06
	I                 7.884e-09   7.884e-09
	K                 2.026e-05   2.026e-05
	Li                1.442e-07   1.442e-07
	Mg                1.630e-03   1.630e-03
	N(-3)             2.857e-06   2.857e-06
	N(5)              2.966e-04   2.966e-04
	Na                2.147e-04   2.147e-04
	S(6)              1.123e-04   1.123e-04
	Sr                7.422e-07   7.422e-07

----------------------------Description of solution----------------------------

                                       pH  =   6.910    
                                       pe  =   4.000    
      Specific Conductance (µS/cm,  18°C)  = 576
                          Density (g/cm³)  =   0.99902
                               Volume (L)  =   1.00163
                        Viscosity (mPa s)  =   1.04916
                        Activity of water  =   1.000
                 Ionic strength (mol/kgw)  =   1.094e-02
                       Mass of water (kg)  =   1.000e+00
                    Total carbon (mol/kg)  =   8.349e-03
                       Total CO2 (mol/kg)  =   8.349e-03
                         Temperature (°C)  =  18.30
                  Electrical balance (eq)  =   1.958e-04
 Percent error, 100*(Cat-|An|)/(Cat+|An|)  =   1.34
                               Iterations  =   9 (27 overall)
                                  Total H  = 1.110190e+02
                                  Total O  = 5.553082e+01

---------------------------------Redox couples---------------------------------

	Redox couple             pe  Eh (volts)

	N(-3)/N(5)           6.8935      0.3986

----------------------------Distribution of species----------------------------

                                               Log       Log       Log    mole V
   Species          Molality    Activity  Molality  Activity     Gamma   cm³/mol

   H+              1.350e-07   1.230e-07    -6.870    -6.910    -0.040      0.00
   OH-             5.404e-08   4.848e-08    -7.267    -7.314    -0.047     -4.35
   H2O             5.551e+01   9.998e-01     1.744    -0.000     0.000     18.04
Ba            1.552e-06
   Ba+2            1.499e-06   1.016e-06    -5.824    -5.993    -0.169    -13.78
   BaHCO3+         5.132e-08   4.615e-08    -7.290    -7.336    -0.046     (0)  
   BaCO3           8.810e-10   8.832e-10    -9.055    -9.054     0.001    -10.77
   BaOH+           3.103e-13   2.797e-13   -12.508   -12.553    -0.045     (0)  
Br            1.002e-06
   Br-             1.002e-06   8.982e-07    -5.999    -6.047    -0.047     24.27
C(4)          8.349e-03
   HCO3-           6.484e-03   5.853e-03    -2.188    -2.233    -0.044     24.12
   CO2             1.780e-03   1.783e-03    -2.750    -2.749     0.001     34.48
   MgHCO3+         7.634e-05   6.861e-05    -4.117    -4.164    -0.046      5.32
   CaCO3           3.814e-06   3.824e-06    -5.419    -5.417     0.001    -14.62
   CO3-2           2.902e-06   1.926e-06    -5.537    -5.715    -0.178     -5.05
   MgCO3           1.699e-06   1.703e-06    -5.770    -5.769     0.001    -17.08
   NaHCO3          5.161e-07   5.181e-07    -6.287    -6.286     0.002     17.08
   BaHCO3+         5.132e-08   4.615e-08    -7.290    -7.336    -0.046     (0)  
   KHCO3           4.231e-08   4.242e-08    -7.374    -7.372     0.001     20.88
   SrHCO3+         3.669e-08   3.311e-08    -7.435    -7.480    -0.045     (0)  
   (CO2)2          3.598e-08   3.604e-08    -7.444    -7.443     0.001     68.12
   BaCO3           8.810e-10   8.832e-10    -9.055    -9.054     0.001    -10.77
   SrCO3           4.680e-10   4.692e-10    -9.330    -9.329     0.001    -14.16
   CaHCO3+         1.700e-10   1.537e-10    -9.769    -9.813    -0.044      9.44
Ca            2.017e-03
   Ca+2            2.005e-03   1.329e-03    -2.698    -2.876    -0.178    -18.02
   CaSO4           8.795e-06   8.805e-06    -5.056    -5.055     0.000      6.45
   CaCO3           3.814e-06   3.824e-06    -5.419    -5.417     0.001    -14.62
   CaOH+           1.994e-09   1.793e-09    -8.700    -8.746    -0.046     (0)  
   CaHCO3+         1.700e-10   1.537e-10    -9.769    -9.813    -0.044      9.44
   CaHSO4+         1.095e-11   9.847e-12   -10.961   -11.007    -0.046     (0)  
Cl            2.362e-04
   Cl-             2.362e-04   2.121e-04    -3.627    -3.673    -0.047     17.90
   HCl             9.271e-12   9.371e-12   -11.033   -11.028     0.005     19.85
F             5.266e-06
   F-              4.969e-06   4.458e-06    -5.304    -5.351    -0.047     -1.47
   MgF+            2.969e-07   2.672e-07    -6.527    -6.573    -0.046    -10.52
   HF              7.284e-10   7.303e-10    -9.138    -9.137     0.001     12.17
   KF              1.760e-11   1.760e-11   -10.754   -10.755    -0.000      0.36
   NaF             2.833e-12   2.847e-12   -11.548   -11.546     0.002      8.27
   HF2-            1.311e-14   1.179e-14   -13.882   -13.928    -0.046     21.77
H(0)          2.288e-25
   H2              1.144e-25   1.147e-25   -24.942   -24.940     0.001     14.45
I             7.884e-09
   I-              7.884e-09   7.090e-09    -8.103    -8.149    -0.046     (0)  
K             2.026e-05
   K+              2.020e-05   1.813e-05    -4.695    -4.742    -0.047      8.83
   KHCO3           4.231e-08   4.242e-08    -7.374    -7.372     0.001     20.88
   KSO4-           1.767e-08   1.602e-08    -7.753    -7.795    -0.042     21.05
   KF              1.760e-11   1.760e-11   -10.754   -10.755    -0.000      0.36
Li            1.442e-07
   Li+             1.441e-07   1.303e-07    -6.841    -6.885    -0.044     -1.15
   LiSO4-          3.747e-11   3.378e-11   -10.426   -10.471    -0.045     (0)  
Mg            1.630e-03
   Mg+2            1.538e-03   1.027e-03    -2.813    -2.988    -0.175    -21.36
   MgHCO3+         7.634e-05   6.861e-05    -4.117    -4.164    -0.046      5.32
   MgSO4           1.337e-05   1.343e-05    -4.874    -4.872     0.002     -1.04
   MgCO3           1.699e-06   1.703e-06    -5.770    -5.769     0.001    -17.08
   MgF+            2.969e-07   2.672e-07    -6.527    -6.573    -0.046    -10.52
   MgOH+           1.803e-08   1.632e-08    -7.744    -7.787    -0.043     (0)  
   Mg(SO4)2-2      4.409e-09   2.983e-09    -8.356    -8.525    -0.170     35.83
N(-3)         2.857e-06
   NH4+            2.847e-06   2.545e-06    -5.546    -5.594    -0.049     17.67
   NH3             7.244e-09   7.262e-09    -8.140    -8.139     0.001     24.09
   NH4SO4-         3.235e-09   2.927e-09    -8.490    -8.534    -0.043     33.88
N(5)          2.966e-04
   NO3-            2.966e-04   2.656e-04    -3.528    -3.576    -0.048     28.85
Na            2.147e-04
   Na+             2.141e-04   1.929e-04    -3.669    -3.715    -0.045     -1.76
   NaHCO3          5.161e-07   5.181e-07    -6.287    -6.286     0.002     17.08
   NaSO4-          1.038e-07   9.335e-08    -6.984    -7.030    -0.046     16.76
   NaF             2.833e-12   2.847e-12   -11.548   -11.546     0.002      8.27
   Na2SO4          4.402e-15   4.411e-15   -14.356   -14.355     0.001     51.59
O(0)          0.000e+00
   O2              0.000e+00   0.000e+00   -44.761   -44.760     0.001     29.83
S(6)          1.123e-04
   SO4-2           9.000e-05   5.938e-05    -4.046    -4.226    -0.181     13.60
   MgSO4           1.337e-05   1.343e-05    -4.874    -4.872     0.002     -1.04
   CaSO4           8.795e-06   8.805e-06    -5.056    -5.055     0.000      6.45
   NaSO4-          1.038e-07   9.335e-08    -6.984    -7.030    -0.046     16.76
   KSO4-           1.767e-08   1.602e-08    -7.753    -7.795    -0.042     21.05
   SrSO4           4.956e-09   4.968e-09    -8.305    -8.304     0.001     23.96
   Mg(SO4)2-2      4.409e-09   2.983e-09    -8.356    -8.525    -0.170     35.83
   NH4SO4-         3.235e-09   2.927e-09    -8.490    -8.534    -0.043     33.88
   HSO4-           6.852e-10   6.161e-10    -9.164    -9.210    -0.046     39.83
   LiSO4-          3.747e-11   3.378e-11   -10.426   -10.471    -0.045     (0)  
   CaHSO4+         1.095e-11   9.847e-12   -10.961   -11.007    -0.046     (0)  
   Na2SO4          4.402e-15   4.411e-15   -14.356   -14.355     0.001     51.59
Sr            7.422e-07
   Sr+2            7.001e-07   4.652e-07    -6.155    -6.332    -0.178    -17.65
   SrHCO3+         3.669e-08   3.311e-08    -7.435    -7.480    -0.045     (0)  
   SrSO4           4.956e-09   4.968e-09    -8.305    -8.304     0.001     23.96
   SrCO3           4.680e-10   4.692e-10    -9.330    -9.329     0.001    -14.16
   SrOH+           2.151e-13   1.939e-13   -12.667   -12.712    -0.045     (0)  

------------------------------Saturation indices-------------------------------

  Phase               SI** log IAP   log K(291 K,   1 atm)

  Anhydrite        -2.89     -7.10   -4.21  CaSO4
  Aragonite        -0.30     -8.59   -8.30  CaCO3
  Arcanite        -11.74    -13.71   -1.97  K2SO4
  Barite           -0.25    -10.22   -9.97  BaSO4
  Calcite          -0.19     -8.59   -8.40  CaCO3
  Celestite        -3.94    -10.56   -6.62  SrSO4
  CO2(g)           -1.36     -2.75   -1.39  CO2
  Dolomite         -0.32    -17.30  -16.98  CaMg(CO3)2
  Epsomite         -5.44     -7.22   -1.78  MgSO4:7H2O
  Fluorite         -2.92    -13.58  -10.66  CaF2
  Gypsum           -2.58     -7.10   -4.53  CaSO4:2H2O
  H2(g)           -21.86    -24.94   -3.08  H2
  H2O(g)           -1.68     -0.00    1.68  H2O
  Halite           -8.95     -7.39    1.56  NaCl
  Hexahydrite      -5.64     -7.22   -1.58  MgSO4:6H2O
  Kieserite        -6.00     -7.21   -1.21  MgSO4:H2O
  Mirabilite      -10.47    -11.66   -1.19  Na2SO4:10H2O
  NaBr             -9.76     -9.76    0.00  NaBr
  NH3(g)          -10.08     -8.14    1.94  NH3
  O2(g)           -41.92    -44.76   -2.84  O2
  Strontianite     -2.78    -12.05   -9.27  SrCO3
  Sylvite          -9.28     -8.41    0.87  KCl
  Thenardite      -12.40    -11.66    0.74  Na2SO4
  Witherite        -3.13    -11.71   -8.58  BaCO3

**For a gas, SI = log10(fugacity). Fugacity = pressure * phi / 1 atm.
  For ideal gases, phi = 1.

Initial solution 4.	 01S-06E-22 BCC 1        Washington Spring 

-----------------------------Solution composition------------------------------

	Elements           Molality       Moles

	Alkalinity        6.817e-03   6.817e-03
	Ba                3.424e-07   3.424e-07
	Br                2.504e-06   2.504e-06
	Ca                1.827e-03   1.827e-03
	Cl                6.395e-05   6.395e-05
	F                 1.053e-05   1.053e-05
	I                 7.884e-09   7.884e-09
	K                 3.068e-05   3.068e-05
	Li                1.442e-07   1.442e-07
	Mg                1.602e-03   1.602e-03
	N(-3)             2.857e-06   2.857e-06
	N(5)              5.450e-05   5.450e-05
	Na                9.443e-05   9.443e-05
	S(6)              5.108e-05   5.108e-05
	Sr                6.166e-07   6.166e-07

----------------------------Description of solution----------------------------

                                       pH  =   7.100    
                                       pe  =   4.000    
      Specific Conductance (µS/cm,  18°C)  = 519
                          Density (g/cm³)  =   0.99914
                               Volume (L)  =   1.00146
                        Viscosity (mPa s)  =   1.07052
                        Activity of water  =   1.000
                 Ionic strength (mol/kgw)  =   1.028e-02
                       Mass of water (kg)  =   1.000e+00
                    Total carbon (mol/kg)  =   8.014e-03
                       Total CO2 (mol/kg)  =   8.014e-03
                         Temperature (°C)  =  17.50
                  Electrical balance (eq)  =  -6.203e-05
 Percent error, 100*(Cat-|An|)/(Cat+|An|)  =  -0.45
                               Iterations  =   9 (36 overall)
                                  Total H  = 1.110192e+02
                                  Total O  = 5.552942e+01

---------------------------------Redox couples---------------------------------

	Redox couple             pe  Eh (volts)

	N(-3)/N(5)           6.6123      0.3813

----------------------------Distribution of species----------------------------

                                               Log       Log       Log    mole V
   Species          Molality    Activity  Molality  Activity     Gamma   cm³/mol

   H+              8.696e-08   7.943e-08    -7.061    -7.100    -0.039      0.00
   OH-             7.814e-08   7.033e-08    -7.107    -7.153    -0.046     -4.40
   H2O             5.551e+01   9.998e-01     1.744    -0.000     0.000     18.04
Ba            3.424e-07
   Ba+2            3.305e-07   2.262e-07    -6.481    -6.646    -0.165    -13.86
   BaHCO3+         1.154e-08   1.040e-08    -7.938    -7.983    -0.045     (0)  
   BaCO3           3.045e-10   3.053e-10    -9.516    -9.515     0.001    -10.78
   BaOH+           1.067e-13   9.646e-14   -12.972   -13.016    -0.044     (0)  
Br            2.504e-06
   Br-             2.504e-06   2.253e-06    -5.601    -5.647    -0.046     24.21
C(4)          8.014e-03
   HCO3-           6.713e-03   6.077e-03    -2.173    -2.216    -0.043     24.03
   CO2             1.209e-03   1.211e-03    -2.917    -2.917     0.001     34.44
   MgHCO3+         7.845e-05   7.071e-05    -4.105    -4.151    -0.045      5.29
   CaCO3           5.456e-06   5.469e-06    -5.263    -5.262     0.001    -14.62
   CO3-2           4.527e-06   3.037e-06    -5.344    -5.518    -0.173     -5.17
   MgCO3           2.634e-06   2.640e-06    -5.579    -5.578     0.001    -17.08
   NaHCO3          2.344e-07   2.353e-07    -6.630    -6.628     0.002     17.01
   KHCO3           6.585e-08   6.600e-08    -7.181    -7.180     0.001     20.81
   SrHCO3+         3.112e-08   2.816e-08    -7.507    -7.550    -0.043     (0)  
   (CO2)2          1.586e-08   1.589e-08    -7.800    -7.799     0.001     68.04
   BaHCO3+         1.154e-08   1.040e-08    -7.938    -7.983    -0.045     (0)  
   SrCO3           6.071e-10   6.085e-10    -9.217    -9.216     0.001    -14.16
   BaCO3           3.045e-10   3.053e-10    -9.516    -9.515     0.001    -10.78
   CaHCO3+         1.341e-10   1.216e-10    -9.873    -9.915    -0.043      9.40
Ca            1.827e-03
   Ca+2            1.818e-03   1.219e-03    -2.740    -2.914    -0.174    -18.05
   CaCO3           5.456e-06   5.469e-06    -5.263    -5.262     0.001    -14.62
   CaSO4           3.649e-06   3.653e-06    -5.438    -5.437     0.000      6.35
   CaOH+           2.824e-09   2.547e-09    -8.549    -8.594    -0.045     (0)  
   CaHCO3+         1.341e-10   1.216e-10    -9.873    -9.915    -0.043      9.40
   CaHSO4+         2.955e-12   2.666e-12   -11.529   -11.574    -0.045     (0)  
Cl            6.395e-05
   Cl-             6.395e-05   5.760e-05    -4.194    -4.240    -0.045     17.86
   HCl             1.635e-12   1.651e-12   -11.787   -11.782     0.004     19.79
F             1.053e-05
   F-              9.948e-06   8.953e-06    -5.002    -5.048    -0.046     -1.48
   MgF+            5.826e-07   5.259e-07    -6.235    -6.279    -0.044    -10.52
   HF              9.317e-10   9.339e-10    -9.031    -9.030     0.001     12.12
   KF              5.286e-11   5.285e-11   -10.277   -10.277    -0.000      0.45
   NaF             2.445e-12   2.456e-12   -11.612   -11.610     0.002      8.36
   HF2-            3.332e-14   3.006e-14   -13.477   -13.522    -0.045     21.72
H(0)          9.621e-26
   H2              4.810e-26   4.822e-26   -25.318   -25.317     0.001     14.38
I             7.884e-09
   I-              7.884e-09   7.111e-09    -8.103    -8.148    -0.045     (0)  
K             3.068e-05
   K+              3.060e-05   2.755e-05    -4.514    -4.560    -0.046      8.80
   KHCO3           6.585e-08   6.600e-08    -7.181    -7.180     0.001     20.81
   KSO4-           1.241e-08   1.128e-08    -7.906    -7.948    -0.041     20.99
   KF              5.286e-11   5.285e-11   -10.277   -10.277    -0.000      0.45
Li            1.442e-07
   Li+             1.442e-07   1.307e-07    -6.841    -6.884    -0.043     -1.13
   LiSO4-          1.741e-11   1.574e-11   -10.759   -10.803    -0.044     (0)  
Mg            1.602e-03
   Mg+2            1.514e-03   1.022e-03    -2.820    -2.991    -0.171    -21.34
   MgHCO3+         7.845e-05   7.071e-05    -4.105    -4.151    -0.045      5.29
   MgSO4           6.055e-06   6.083e-06    -5.218    -5.216     0.002     -1.12
   MgCO3           2.634e-06   2.640e-06    -5.579    -5.578     0.001    -17.08
   MgF+            5.826e-07   5.259e-07    -6.235    -6.279    -0.044    -10.52
   MgOH+           2.569e-08   2.332e-08    -7.590    -7.632    -0.042     (0)  
   Mg(SO4)2-2      9.328e-10   6.375e-10    -9.030    -9.196    -0.165     35.43
N(-3)         2.857e-06
   NH4+            2.845e-06   2.552e-06    -5.546    -5.593    -0.047     17.62
   NH3             1.060e-08   1.063e-08    -7.975    -7.974     0.001     24.05
   NH4SO4-         1.475e-09   1.339e-09    -8.831    -8.873    -0.042     33.85
N(5)          5.450e-05
   NO3-            5.450e-05   4.897e-05    -4.264    -4.310    -0.046     28.75
Na            9.443e-05
   Na+             9.418e-05   8.508e-05    -4.026    -4.070    -0.044     -1.82
   NaHCO3          2.344e-07   2.353e-07    -6.630    -6.628     0.002     17.01
   NaSO4-          2.102e-08   1.896e-08    -7.677    -7.722    -0.045     16.70
   NaF             2.445e-12   2.456e-12   -11.612   -11.610     0.002      8.36
   Na2SO4          3.624e-16   3.632e-16   -15.441   -15.440     0.001     52.08
O(0)          0.000e+00
   O2              0.000e+00   0.000e+00   -44.288   -44.287     0.001     29.75
S(6)          5.108e-05
   SO4-2           4.134e-05   2.759e-05    -4.384    -4.559    -0.176     13.44
   MgSO4           6.055e-06   6.083e-06    -5.218    -5.216     0.002     -1.12
   CaSO4           3.649e-06   3.653e-06    -5.438    -5.437     0.000      6.35
   NaSO4-          2.102e-08   1.896e-08    -7.677    -7.722    -0.045     16.70
   KSO4-           1.241e-08   1.128e-08    -7.906    -7.948    -0.041     20.99
   SrSO4           1.920e-09   1.924e-09    -8.717    -8.716     0.001     23.92
   NH4SO4-         1.475e-09   1.339e-09    -8.831    -8.873    -0.042     33.85
   Mg(SO4)2-2      9.328e-10   6.375e-10    -9.030    -9.196    -0.165     35.43
   HSO4-           2.016e-10   1.818e-10    -9.696    -9.740    -0.045     39.75
   LiSO4-          1.741e-11   1.574e-11   -10.759   -10.803    -0.044     (0)  
   CaHSO4+         2.955e-12   2.666e-12   -11.529   -11.574    -0.045     (0)  
   Na2SO4          3.624e-16   3.632e-16   -15.441   -15.440     0.001     52.08
Sr            6.166e-07
   Sr+2            5.829e-07   3.917e-07    -6.234    -6.407    -0.173    -17.64
   SrHCO3+         3.112e-08   2.816e-08    -7.507    -7.550    -0.043     (0)  
   SrSO4           1.920e-09   1.924e-09    -8.717    -8.716     0.001     23.92
   SrCO3           6.071e-10   6.085e-10    -9.217    -9.216     0.001    -14.16
   SrOH+           2.797e-13   2.528e-13   -12.553   -12.597    -0.044     (0)  

------------------------------Saturation indices-------------------------------

  Phase               SI** log IAP   log K(290 K,   1 atm)

  Anhydrite        -3.28     -7.47   -4.20  CaSO4
  Aragonite        -0.14     -8.43   -8.29  CaCO3
  Arcanite        -11.69    -13.68   -1.99  K2SO4
  Barite           -1.23    -11.20   -9.98  BaSO4
  Calcite          -0.04     -8.43   -8.39  CaCO3
  Celestite        -4.35    -10.97   -6.62  SrSO4
  CO2(g)           -1.54     -2.92   -1.37  CO2
  Dolomite          0.03    -16.94  -16.97  CaMg(CO3)2
  Epsomite         -5.77     -7.55   -1.79  MgSO4:7H2O
  Fluorite         -2.35    -13.01  -10.66  CaF2
  Gypsum           -2.95     -7.47   -4.52  CaSO4:2H2O
  H2(g)           -22.23    -25.32   -3.08  H2
  H2O(g)           -1.70     -0.00    1.70  H2O
  Halite           -9.87     -8.31    1.56  NaCl
  Hexahydrite      -5.97     -7.55   -1.58  MgSO4:6H2O
  Kieserite        -6.33     -7.55   -1.22  MgSO4:H2O
  Mirabilite      -11.46    -12.70   -1.24  Na2SO4:10H2O
  NaBr             -9.72     -9.72    0.00  NaBr
  NH3(g)           -9.93     -7.97    1.96  NH3
  O2(g)           -41.45    -44.29   -2.83  O2
  Strontianite     -2.65    -11.92   -9.27  SrCO3
  Sylvite          -9.66     -8.80    0.86  KCl
  Thenardite      -13.45    -12.70    0.75  Na2SO4
  Witherite        -3.58    -12.16   -8.59  BaCO3

**For a gas, SI = log10(fugacity). Fugacity = pressure * phi / 1 atm.
  For ideal gases, phi = 1.

Initial solution 5.	 01S-06E-26 ADD 1 

-----------------------------Solution composition------------------------------

	Elements           Molality       Moles

	Alkalinity        8.858e-03   8.858e-03
	Ba                4.663e-07   4.663e-07
	Br                1.127e-06   1.127e-06
	Ca                2.586e-03   2.586e-03
	Cl                2.771e-04   2.771e-04
	F                 5.267e-06   5.267e-06
	I                 2.365e-08   2.365e-08
	K                 4.056e-05   4.056e-05
	Li                1.442e-07   1.442e-07
	Mg                2.267e-03   2.267e-03
	N(-3)             2.858e-06   2.858e-06
	N(5)              1.596e-04   1.596e-04
	Na                3.768e-04   3.768e-04
	S(6)              1.778e-04   1.778e-04
	Sr                7.766e-07   7.766e-07

----------------------------Description of solution----------------------------

                                       pH  =   6.700    
                                       pe  =   4.000    
      Specific Conductance (µS/cm,  18°C)  = 748
                          Density (g/cm³)  =   0.99917
                               Volume (L)  =   1.00175
                        Viscosity (mPa s)  =   1.04792
                        Activity of water  =   1.000
                 Ionic strength (mol/kgw)  =   1.448e-02
                       Mass of water (kg)  =   1.000e+00
                    Total carbon (mol/kg)  =   1.267e-02
                       Total CO2 (mol/kg)  =   1.267e-02
                         Temperature (°C)  =  18.40
                  Electrical balance (eq)  =   4.738e-04
 Percent error, 100*(Cat-|An|)/(Cat+|An|)  =   2.45
                               Iterations  =   8 (44 overall)
                                  Total H  = 1.110213e+02
                                  Total O  = 5.554160e+01

---------------------------------Redox couples---------------------------------

	Redox couple             pe  Eh (volts)

	N(-3)/N(5)           7.1163      0.4117

----------------------------Distribution of species----------------------------

                                               Log       Log       Log    mole V
   Species          Molality    Activity  Molality  Activity     Gamma   cm³/mol

   H+              2.212e-07   1.995e-07    -6.655    -6.700    -0.045      0.00
   OH-             3.407e-08   3.014e-08    -7.468    -7.521    -0.053     -4.32
   H2O             5.551e+01   9.997e-01     1.744    -0.000     0.000     18.04
Ba            4.663e-07
   Ba+2            4.464e-07   2.889e-07    -6.350    -6.539    -0.189    -13.71
   BaHCO3+         1.968e-08   1.746e-08    -7.706    -7.758    -0.052     (0)  
   BaCO3           2.056e-10   2.063e-10    -9.687    -9.685     0.001    -10.77
   BaOH+           5.513e-14   4.905e-14   -13.259   -13.309    -0.051     (0)  
Br            1.127e-06
   Br-             1.127e-06   9.961e-07    -5.948    -6.002    -0.054     24.29
C(4)          1.267e-02
   HCO3-           8.707e-03   7.761e-03    -2.060    -2.110    -0.050     24.17
   CO2             3.819e-03   3.828e-03    -2.418    -2.417     0.001     34.48
   MgHCO3+         1.339e-04   1.186e-04    -3.873    -3.926    -0.052      5.33
   CaCO3           3.808e-06   3.820e-06    -5.419    -5.418     0.001    -14.62
   CO3-2           2.502e-06   1.578e-06    -5.602    -5.802    -0.200     -4.96
   MgCO3           1.816e-06   1.822e-06    -5.741    -5.739     0.001    -17.08
   NaHCO3          1.184e-06   1.190e-06    -5.927    -5.925     0.002     17.09
   (CO2)2          1.667e-07   1.671e-07    -6.778    -6.777     0.001     68.13
   KHCO3           1.107e-07   1.111e-07    -6.956    -6.954     0.001     20.89
   SrHCO3+         4.841e-08   4.314e-08    -7.315    -7.365    -0.050     (0)  
   BaHCO3+         1.968e-08   1.746e-08    -7.706    -7.758    -0.052     (0)  
   SrCO3           3.763e-10   3.776e-10    -9.424    -9.423     0.001    -14.16
   CaHCO3+         2.843e-10   2.539e-10    -9.546    -9.595    -0.049      9.45
   BaCO3           2.056e-10   2.063e-10    -9.687    -9.685     0.001    -10.77
Ca            2.586e-03
   Ca+2            2.567e-03   1.618e-03    -2.591    -2.791    -0.200    -17.98
   CaSO4           1.549e-05   1.551e-05    -4.810    -4.809     0.001      6.47
   CaCO3           3.808e-06   3.820e-06    -5.419    -5.418     0.001    -14.62
   CaOH+           1.517e-09   1.345e-09    -8.819    -8.871    -0.052     (0)  
   CaHCO3+         2.843e-10   2.539e-10    -9.546    -9.595    -0.049      9.45
   CaHSO4+         3.167e-11   2.810e-11   -10.499   -10.551    -0.052     (0)  
Cl            2.771e-04
   Cl-             2.771e-04   2.454e-04    -3.557    -3.610    -0.053     17.92
   HCl             1.732e-11   1.757e-11   -10.761   -10.755     0.006     19.86
F             5.267e-06
   F-              4.885e-06   4.320e-06    -5.311    -5.364    -0.053     -1.46
   MgF+            3.809e-07   3.383e-07    -6.419    -6.471    -0.052    -10.51
   HF              1.146e-09   1.150e-09    -8.941    -8.939     0.001     12.17
   KF              3.370e-11   3.369e-11   -10.472   -10.473    -0.000      0.35
   NaF             4.759e-12   4.790e-12   -11.323   -11.320     0.003      8.26
   HF2-            2.030e-14   1.801e-14   -13.692   -13.744    -0.052     21.79
H(0)          6.008e-25
   H2              3.004e-25   3.014e-25   -24.522   -24.521     0.002     14.46
I             2.365e-08
   I-              2.365e-08   2.099e-08    -7.626    -7.678    -0.052     (0)  
K             4.056e-05
   K+              4.040e-05   3.575e-05    -4.394    -4.447    -0.053      8.85
   KHCO3           1.107e-07   1.111e-07    -6.956    -6.954     0.001     20.89
   KSO4-           5.080e-08   4.556e-08    -7.294    -7.341    -0.047     21.50
   KF              3.370e-11   3.369e-11   -10.472   -10.473    -0.000      0.35
Li            1.442e-07
   Li+             1.442e-07   1.287e-07    -6.841    -6.890    -0.049     -1.14
   LiSO4-          5.409e-11   4.813e-11   -10.267   -10.318    -0.051     (0)  
Mg            2.267e-03
   Mg+2            2.106e-03   1.339e-03    -2.677    -2.873    -0.197    -21.32
   MgHCO3+         1.339e-04   1.186e-04    -3.873    -3.926    -0.052      5.33
   MgSO4           2.516e-05   2.533e-05    -4.599    -4.596     0.003     -1.02
   MgCO3           1.816e-06   1.822e-06    -5.741    -5.739     0.001    -17.08
   MgF+            3.809e-07   3.383e-07    -6.419    -6.471    -0.052    -10.51
   MgOH+           1.480e-08   1.324e-08    -7.830    -7.878    -0.048     (0)  
   Mg(SO4)2-2      1.253e-08   8.095e-09    -7.902    -8.092    -0.190     36.40
N(-3)         2.858e-06
   NH4+            2.849e-06   2.508e-06    -5.545    -5.601    -0.055     17.69
   NH4SO4-         4.664e-09   4.170e-09    -8.331    -8.380    -0.049     34.01
   NH3             4.431e-09   4.445e-09    -8.354    -8.352     0.001     24.10
N(5)          1.596e-04
   NO3-            1.596e-04   1.408e-04    -3.797    -3.851    -0.054     28.88
Na            3.768e-04
   Na+             3.753e-04   3.336e-04    -3.426    -3.477    -0.051     -1.73
   NaHCO3          1.184e-06   1.190e-06    -5.927    -5.925     0.002     17.09
   NaSO4-          2.627e-07   2.332e-07    -6.580    -6.632    -0.052     16.85
   NaF             4.759e-12   4.790e-12   -11.323   -11.320     0.003      8.26
   Na2SO4          1.921e-14   1.927e-14   -13.716   -13.715     0.001     51.53
O(0)          0.000e+00
   O2              0.000e+00   0.000e+00   -45.566   -45.564     0.001     29.84
S(6)          1.778e-04
   SO4-2           1.368e-04   8.564e-05    -3.864    -4.067    -0.203     13.65
   MgSO4           2.516e-05   2.533e-05    -4.599    -4.596     0.003     -1.02
   CaSO4           1.549e-05   1.551e-05    -4.810    -4.809     0.001      6.47
   NaSO4-          2.627e-07   2.332e-07    -6.580    -6.632    -0.052     16.85
   KSO4-           5.080e-08   4.556e-08    -7.294    -7.341    -0.047     21.50
   Mg(SO4)2-2      1.253e-08   8.095e-09    -7.902    -8.092    -0.190     36.40
   SrSO4           7.001e-09   7.024e-09    -8.155    -8.153     0.001     23.96
   NH4SO4-         4.664e-09   4.170e-09    -8.331    -8.380    -0.049     34.01
   HSO4-           1.628e-09   1.444e-09    -8.788    -8.840    -0.052     39.85
   LiSO4-          5.409e-11   4.813e-11   -10.267   -10.318    -0.051     (0)  
   CaHSO4+         3.167e-11   2.810e-11   -10.499   -10.551    -0.052     (0)  
   Na2SO4          1.921e-14   1.927e-14   -13.716   -13.715     0.001     51.53
Sr            7.766e-07
   Sr+2            7.208e-07   4.555e-07    -6.142    -6.342    -0.199    -17.61
   SrHCO3+         4.841e-08   4.314e-08    -7.315    -7.365    -0.050     (0)  
   SrSO4           7.001e-09   7.024e-09    -8.155    -8.153     0.001     23.96
   SrCO3           3.763e-10   3.776e-10    -9.424    -9.423     0.001    -14.16
   SrOH+           1.315e-13   1.170e-13   -12.881   -12.932    -0.051     (0)  

------------------------------Saturation indices-------------------------------

  Phase               SI** log IAP   log K(291 K,   1 atm)

  Anhydrite        -2.65     -6.86   -4.21  CaSO4
  Aragonite        -0.30     -8.59   -8.30  CaCO3
  Arcanite        -10.99    -12.96   -1.97  K2SO4
  Barite           -0.64    -10.61   -9.97  BaSO4
  Calcite          -0.19     -8.59   -8.40  CaCO3
  Celestite        -3.79    -10.41   -6.62  SrSO4
  CO2(g)           -1.03     -2.42   -1.39  CO2
  Dolomite         -0.29    -17.27  -16.98  CaMg(CO3)2
  Epsomite         -5.16     -6.94   -1.78  MgSO4:7H2O
  Fluorite         -2.86    -13.52  -10.66  CaF2
  Gypsum           -2.33     -6.86   -4.53  CaSO4:2H2O
  H2(g)           -21.44    -24.52   -3.08  H2
  H2O(g)           -1.68     -0.00    1.68  H2O
  Halite           -8.65     -7.09    1.56  NaCl
  Hexahydrite      -5.37     -6.94   -1.58  MgSO4:6H2O
  Kieserite        -5.73     -6.94   -1.21  MgSO4:H2O
  Mirabilite       -9.84    -11.02   -1.18  Na2SO4:10H2O
  NaBr             -9.48     -9.48    0.00  NaBr
  NH3(g)          -10.29     -8.35    1.94  NH3
  O2(g)           -42.72    -45.56   -2.84  O2
  Strontianite     -2.87    -12.14   -9.27  SrCO3
  Sylvite          -8.92     -8.06    0.87  KCl
  Thenardite      -11.76    -11.02    0.74  Na2SO4
  Witherite        -3.76    -12.34   -8.58  BaCO3

**For a gas, SI = log10(fugacity). Fugacity = pressure * phi / 1 atm.
  For ideal gases, phi = 1.

Initial solution 6.	 01S-07E-23 BCC 1  Wood well 

-----------------------------Solution composition------------------------------

	Elements           Molality       Moles

	Alkalinity        5.160e-03   5.160e-03
	Ba                5.757e-07   5.757e-07
	Br                1.202e-05   1.202e-05
	Ca                2.117e-03   2.117e-03
	Cl                7.880e-03   7.880e-03
	F                 3.688e-05   3.688e-05
	I                 2.681e-07   2.681e-07
	K                 2.438e-04   2.438e-04
	Li                5.481e-06   5.481e-06
	Mg                1.592e-03   1.592e-03
	N(-3)             2.172e-05   2.172e-05
	Na                6.143e-03   6.143e-03
	S(6)              4.162e-04   4.162e-04
	Sr                2.833e-05   2.833e-05

----------------------------Description of solution----------------------------

                                       pH  =   7.200    
                                       pe  =   4.000    
      Specific Conductance (µS/cm,  18°C)  = 1258
                          Density (g/cm³)  =   0.99925
                               Volume (L)  =   1.00170
                        Viscosity (mPa s)  =   1.04610
                        Activity of water  =   1.000
                 Ionic strength (mol/kgw)  =   1.762e-02
                       Mass of water (kg)  =   1.000e+00
                    Total carbon (mol/kg)  =   5.844e-03
                       Total CO2 (mol/kg)  =   5.844e-03
                         Temperature (°C)  =  18.40
                  Electrical balance (eq)  =  -3.165e-05
 Percent error, 100*(Cat-|An|)/(Cat+|An|)  =  -0.12
                               Iterations  =   8 (52 overall)
                                  Total H  = 1.110177e+02
                                  Total O  = 5.552472e+01

----------------------------Distribution of species----------------------------

                                               Log       Log       Log    mole V
   Species          Molality    Activity  Molality  Activity     Gamma   cm³/mol

   OH-             1.089e-07   9.529e-08    -6.963    -7.021    -0.058     -4.31
   H+              7.049e-08   6.310e-08    -7.152    -7.200    -0.048      0.00
   H2O             5.551e+01   9.996e-01     1.744    -0.000     0.000     18.04
Ba            5.757e-07
   Ba+2            5.613e-07   3.512e-07    -6.251    -6.454    -0.204    -13.66
   BaHCO3+         1.394e-08   1.224e-08    -7.856    -7.912    -0.056     (0)  
   BaCO3           4.554e-10   4.573e-10    -9.342    -9.340     0.002    -10.77
   BaOH+           2.140e-13   1.885e-13   -12.670   -12.725    -0.055     (0)  
Br            1.202e-05
   Br-             1.202e-05   1.051e-05    -4.920    -4.978    -0.058     24.30
C(4)          5.844e-03
   HCO3-           5.069e-03   4.476e-03    -2.295    -2.349    -0.054     24.20
   CO2             6.962e-04   6.981e-04    -3.157    -3.156     0.001     34.48
   MgHCO3+         5.334e-05   4.677e-05    -4.273    -4.330    -0.057      5.34
   NaHCO3          1.101e-05   1.108e-05    -4.958    -4.955     0.003     17.09
   CaCO3           5.419e-06   5.441e-06    -5.266    -5.264     0.002    -14.62
   CO3-2           4.742e-06   2.878e-06    -5.324    -5.541    -0.217     -4.90
   MgCO3           2.263e-06   2.272e-06    -5.645    -5.644     0.002    -17.08
   SrHCO3+         1.005e-06   8.874e-07    -5.998    -6.052    -0.054     (0)  
   KHCO3           3.790e-07   3.805e-07    -6.421    -6.420     0.002     20.89
   SrCO3           2.446e-08   2.456e-08    -7.611    -7.610     0.002    -14.16
   BaHCO3+         1.394e-08   1.224e-08    -7.856    -7.912    -0.056     (0)  
   (CO2)2          5.543e-09   5.558e-09    -8.256    -8.255     0.001     68.13
   BaCO3           4.554e-10   4.573e-10    -9.342    -9.340     0.002    -10.77
   CaHCO3+         1.292e-10   1.144e-10    -9.889    -9.942    -0.053      9.46
Ca            2.117e-03
   Ca+2            2.083e-03   1.264e-03    -2.681    -2.898    -0.217    -17.95
   CaSO4           2.850e-05   2.856e-05    -4.545    -4.544     0.001      6.47
   CaCO3           5.419e-06   5.441e-06    -5.266    -5.264     0.002    -14.62
   CaOH+           3.784e-09   3.323e-09    -8.422    -8.479    -0.056     (0)  
   CaHCO3+         1.292e-10   1.144e-10    -9.889    -9.942    -0.053      9.46
   CaHSO4+         1.863e-11   1.636e-11   -10.730   -10.786    -0.056     (0)  
Cl            7.880e-03
   Cl-             7.880e-03   6.903e-03    -2.103    -2.161    -0.058     17.93
   HCl             1.536e-10   1.563e-10    -9.814    -9.806     0.007     19.86
F             3.688e-05
   F-              3.501e-05   3.062e-05    -4.456    -4.514    -0.058     -1.45
   MgF+            1.865e-06   1.639e-06    -5.729    -5.785    -0.056    -10.50
   HF              2.567e-09   2.577e-09    -8.591    -8.589     0.002     12.17
   KF              1.419e-09   1.419e-09    -8.848    -8.848    -0.000      0.35
   NaF             5.439e-10   5.484e-10    -9.264    -9.261     0.004      8.26
   HF2-            3.259e-13   2.861e-13   -12.487   -12.543    -0.056     21.80
H(0)          6.003e-26
   H2              3.001e-26   3.014e-26   -25.523   -25.521     0.002     14.46
I             2.681e-07
   I-              2.681e-07   2.355e-07    -6.572    -6.628    -0.056     (0)  
K             2.438e-04
   K+              2.427e-04   2.124e-04    -3.615    -3.673    -0.058      8.86
   KSO4-           7.174e-07   6.381e-07    -6.144    -6.195    -0.051     21.84
   KHCO3           3.790e-07   3.805e-07    -6.421    -6.420     0.002     20.89
   KF              1.419e-09   1.419e-09    -8.848    -8.848    -0.000      0.35
Li            5.481e-06
   Li+             5.476e-06   4.846e-06    -5.262    -5.315    -0.053     -1.13
   LiSO4-          4.847e-09   4.270e-09    -8.315    -8.370    -0.055     (0)  
Mg            1.592e-03
   Mg+2            1.494e-03   9.156e-04    -2.826    -3.038    -0.213    -21.29
   MgHCO3+         5.334e-05   4.677e-05    -4.273    -4.330    -0.057      5.34
   MgSO4           4.049e-05   4.082e-05    -4.393    -4.389     0.004     -1.02
   MgCO3           2.263e-06   2.272e-06    -5.645    -5.644     0.002    -17.08
   MgF+            1.865e-06   1.639e-06    -5.729    -5.785    -0.056    -10.50
   Mg(SO4)2-2      4.925e-08   3.075e-08    -7.308    -7.512    -0.205     36.79
   MgOH+           3.229e-08   2.863e-08    -7.491    -7.543    -0.052     (0)  
N(-3)         2.172e-05
   NH4+            2.153e-05   1.874e-05    -4.667    -4.727    -0.060     17.71
   NH3             1.046e-07   1.050e-07    -6.980    -6.979     0.002     24.10
   NH4SO4-         8.290e-08   7.344e-08    -7.081    -7.134    -0.053     34.11
Na            6.143e-03
   Na+             6.122e-03   5.388e-03    -2.213    -2.269    -0.055     -1.71
   NaHCO3          1.101e-05   1.108e-05    -4.958    -4.955     0.003     17.09
   NaSO4-          1.010e-05   8.877e-06    -4.996    -5.052    -0.056     16.92
   NaF             5.439e-10   5.484e-10    -9.264    -9.261     0.004      8.26
   Na2SO4          1.180e-11   1.184e-11   -10.928   -10.926     0.002     51.53
O(0)          0.000e+00
   O2              0.000e+00   0.000e+00   -43.566   -43.565     0.002     29.84
S(6)          4.162e-04
   SO4-2           3.356e-04   2.019e-04    -3.474    -3.695    -0.221     13.67
   MgSO4           4.049e-05   4.082e-05    -4.393    -4.389     0.004     -1.02
   CaSO4           2.850e-05   2.856e-05    -4.545    -4.544     0.001      6.47
   NaSO4-          1.010e-05   8.877e-06    -4.996    -5.052    -0.056     16.92
   KSO4-           7.174e-07   6.381e-07    -6.144    -6.195    -0.051     21.84
   SrSO4           5.883e-07   5.907e-07    -6.230    -6.229     0.002     23.96
   NH4SO4-         8.290e-08   7.344e-08    -7.081    -7.134    -0.053     34.11
   Mg(SO4)2-2      4.925e-08   3.075e-08    -7.308    -7.512    -0.205     36.79
   LiSO4-          4.847e-09   4.270e-09    -8.315    -8.370    -0.055     (0)  
   HSO4-           1.226e-09   1.077e-09    -8.912    -8.968    -0.056     39.86
   CaHSO4+         1.863e-11   1.636e-11   -10.730   -10.786    -0.056     (0)  
   Na2SO4          1.180e-11   1.184e-11   -10.928   -10.926     0.002     51.53
Sr            2.833e-05
   Sr+2            2.671e-05   1.625e-05    -4.573    -4.789    -0.216    -17.58
   SrHCO3+         1.005e-06   8.874e-07    -5.998    -6.052    -0.054     (0)  
   SrSO4           5.883e-07   5.907e-07    -6.230    -6.229     0.002     23.96
   SrCO3           2.446e-08   2.456e-08    -7.611    -7.610     0.002    -14.16
   SrOH+           1.498e-11   1.320e-11   -10.824   -10.879    -0.055     (0)  

------------------------------Saturation indices-------------------------------

  Phase               SI** log IAP   log K(291 K,   1 atm)

  Anhydrite        -2.38     -6.59   -4.21  CaSO4
  Aragonite        -0.14     -8.44   -8.30  CaCO3
  Arcanite         -9.07    -11.04   -1.97  K2SO4
  Barite           -0.18    -10.15   -9.97  BaSO4
  Calcite          -0.04     -8.44   -8.40  CaCO3
  Celestite        -1.86     -8.48   -6.62  SrSO4
  CO2(g)           -1.77     -3.16   -1.39  CO2
  Dolomite         -0.04    -17.02  -16.98  CaMg(CO3)2
  Epsomite         -4.96     -6.73   -1.78  MgSO4:7H2O
  Fluorite         -1.27    -11.93  -10.66  CaF2
  Gypsum           -2.07     -6.59   -4.53  CaSO4:2H2O
  H2(g)           -22.44    -25.52   -3.08  H2
  H2O(g)           -1.68     -0.00    1.68  H2O
  Halite           -5.99     -4.43    1.56  NaCl
  Hexahydrite      -5.16     -6.73   -1.58  MgSO4:6H2O
  Kieserite        -5.52     -6.73   -1.21  MgSO4:H2O
  Mirabilite       -7.05     -8.23   -1.18  Na2SO4:10H2O
  NaBr             -7.25     -7.25    0.00  NaBr
  NH3(g)           -8.92     -6.98    1.94  NH3
  O2(g)           -40.72    -43.56   -2.84  O2
  Strontianite     -1.06    -10.33   -9.27  SrCO3
  Sylvite          -6.70     -5.83    0.87  KCl
  Thenardite       -8.97     -8.23    0.74  Na2SO4
  Witherite        -3.41    -12.00   -8.58  BaCO3

**For a gas, SI = log10(fugacity). Fugacity = pressure * phi / 1 atm.
  For ideal gases, phi = 1.

Initial solution 7.	 02S-05E-08 ABB 1  Johnston County RWD 3 Well 1 

-----------------------------Solution composition------------------------------

	Elements           Molality       Moles

	Alkalinity        6.557e-03   6.557e-03
	Ba                3.278e-07   3.278e-07
	Br                6.260e-07   6.260e-07
	Ca                1.995e-03   1.995e-03
	Cl                9.214e-05   9.214e-05
	F                 1.053e-05   1.053e-05
	I                 3.153e-08   3.153e-08
	K                 2.162e-05   2.162e-05
	Li                1.442e-07   1.442e-07
	Mg                1.420e-03   1.420e-03
	N(-3)             2.857e-06   2.857e-06
	N(5)              4.279e-05   4.279e-05
	Na                1.661e-04   1.661e-04
	S(6)              1.222e-04   1.222e-04
	Sr                9.477e-07   9.477e-07

----------------------------Description of solution----------------------------

                                       pH  =   6.970    
                                       pe  =   4.000    
      Specific Conductance (µS/cm,  16°C)  = 506
                          Density (g/cm³)  =   0.99938
                               Volume (L)  =   1.00123
                        Viscosity (mPa s)  =   1.10973
                        Activity of water  =   1.000
                 Ionic strength (mol/kgw)  =   1.029e-02
                       Mass of water (kg)  =   1.000e+00
                    Total carbon (mol/kg)  =   8.161e-03
                       Total CO2 (mol/kg)  =   8.161e-03
                         Temperature (°C)  =  16.10
                  Electrical balance (eq)  =   7.561e-05
 Percent error, 100*(Cat-|An|)/(Cat+|An|)  =   0.55
                               Iterations  =   9 (61 overall)
                                  Total H  = 1.110190e+02
                                  Total O  = 5.552970e+01

---------------------------------Redox couples---------------------------------

	Redox couple             pe  Eh (volts)

	N(-3)/N(5)           6.8467      0.3929

[...]
  CH4(g)          -58.46    -61.26   -2.80  CH4
  CO2(g)           -4.18     -5.65   -1.47  CO2
  H2(g)           -20.05    -23.15   -3.10  H2
  H2O(g)           -1.50     -0.00    1.50  H2O
  O2(g)           -43.17    -46.06   -2.89  O2

**For a gas, SI = log10(fugacity). Fugacity = pressure * phi / 1 atm.
  For ideal gases, phi = 1.

------------------
End of simulation.
------------------

------------------------------------
Reading input data for simulation 3.
------------------------------------

	USE solution 32
	EQUILIBRIUM_PHASES
		Calcite	0
		CO2(g)	-1.7
		O2(g) -15
	SAVE solution 33
	END
-----------------------------------------
Beginning of batch-reaction calculations.
-----------------------------------------

Reaction step 1.

Using solution 32.	 Precipitation 
Using pure phase assemblage 1.	

-------------------------------Phase assemblage--------------------------------

                                                      Moles in assemblage
Phase               SI  log IAP  log K(T, P)   Initial       Final       Delta

CO2(g)           -1.70    -3.07     -1.37    1.000e+01   9.997e+00  -3.273e-03
Calcite           0.00    -8.39     -8.39    1.000e+01   9.998e+00  -2.448e-03
O2(g)           -15.00   -17.83     -2.83    1.000e+01   1.000e+01  -1.403e-13

-----------------------------Solution composition------------------------------

	Elements           Molality       Moles

	C                 5.722e-03   5.721e-03
	Ca                2.549e-03   2.548e-03
	Cl                7.000e-05   7.000e-05
	K                 1.000e-05   1.000e-05
	Mg                2.000e-05   2.000e-05
	Na                6.000e-05   6.000e-05
	S                 1.300e-04   1.300e-04

----------------------------Description of solution----------------------------

                                       pH  =   7.119      Charge balance
                                       pe  =  10.640      Adjusted to redox equilibrium
      Specific Conductance (µS/cm,  17°C)  = 409
                          Density (g/cm³)  =   0.99913
                               Volume (L)  =   1.00129
                        Viscosity (mPa s)  =   1.08305
                        Activity of water  =   1.000
                 Ionic strength (mol/kgw)  =   7.828e-03
                       Mass of water (kg)  =   1.000e+00
                 Total alkalinity (eq/kg)  =   4.877e-03
                       Total CO2 (mol/kg)  =   5.722e-03
                         Temperature (°C)  =  17.00
                  Electrical balance (eq)  =   4.359e-13
 Percent error, 100*(Cat-|An|)/(Cat+|An|)  =   0.00
                               Iterations  =  17
                                  Total H  = 1.110125e+02
                                  Total O  = 5.552063e+01

----------------------------Distribution of species----------------------------

                                               Log       Log       Log    mole V
   Species          Molality    Activity  Molality  Activity     Gamma   cm³/mol

   H+              8.242e-08   7.598e-08    -7.084    -7.119    -0.035      0.00
   OH-             7.744e-08   7.056e-08    -7.111    -7.151    -0.040     -4.44
   H2O             5.551e+01   9.999e-01     1.744    -0.000     0.000     18.04
C(-4)         0.000e+00
   CH4             0.000e+00   0.000e+00  -119.649  -119.648     0.001     34.73
C(4)          5.722e-03
   HCO3-           4.858e-03   4.446e-03    -2.314    -2.352    -0.038     23.95
   CO2             8.538e-04   8.548e-04    -3.069    -3.068     0.001     34.41
   CaCO3           5.952e-06   5.963e-06    -5.225    -5.225     0.001    -14.63
   CO3-2           3.272e-06   2.295e-06    -5.485    -5.639    -0.154     -5.30
   MgHCO3+         7.420e-07   6.768e-07    -6.130    -6.170    -0.040      5.26
   NaHCO3          1.097e-07   1.100e-07    -6.960    -6.958     0.001     16.96
   MgCO3           2.589e-08   2.593e-08    -7.587    -7.586     0.001    -17.08
   KHCO3           1.577e-08   1.580e-08    -7.802    -7.801     0.001     20.76
   (CO2)2          7.678e-09   7.687e-09    -8.115    -8.114     0.001     67.99
   CaHCO3+         1.255e-10   1.150e-10    -9.901    -9.939    -0.038      9.37
Ca            2.549e-03
   Ca+2            2.527e-03   1.772e-03    -2.597    -2.752    -0.154    -18.09
   CaSO4           1.513e-05   1.514e-05    -4.820    -4.820     0.000      6.28
   CaCO3           5.952e-06   5.963e-06    -5.225    -5.225     0.001    -14.63
   CaOH+           4.240e-09   3.869e-09    -8.373    -8.412    -0.040     (0)  
   CaHCO3+         1.255e-10   1.150e-10    -9.901    -9.939    -0.038      9.37
   CaHSO4+         1.166e-11   1.064e-11   -10.933   -10.973    -0.040     (0)  
Cl            7.000e-05
   Cl-             7.000e-05   6.382e-05    -4.155    -4.195    -0.040     17.83
   HCl             1.742e-12   1.755e-12   -11.759   -11.756     0.003     19.74
H(0)          4.645e-39
   H2              2.322e-39   2.327e-39   -38.634   -38.633     0.001     14.34
K             1.000e-05
   K+              9.973e-06   9.089e-06    -5.001    -5.041    -0.040      8.77
   KHCO3           1.577e-08   1.580e-08    -7.802    -7.801     0.001     20.76
   KSO4-           1.175e-08   1.079e-08    -7.930    -7.967    -0.037     20.62
Mg            2.000e-05
   Mg+2            1.901e-05   1.339e-05    -4.721    -4.873    -0.152    -21.35
   MgHCO3+         7.420e-07   6.768e-07    -6.130    -6.170    -0.040      5.26
   MgSO4           2.274e-07   2.282e-07    -6.643    -6.642     0.002     -1.17
   MgCO3           2.589e-08   2.593e-08    -7.587    -7.586     0.001    -17.08
   MgOH+           3.320e-10   3.045e-10    -9.479    -9.516    -0.037     (0)  
   Mg(SO4)2-2      9.847e-11   7.007e-11   -10.007   -10.154    -0.148     34.76
Na            6.000e-05
   Na+             5.985e-05   5.469e-05    -4.223    -4.262    -0.039     -1.87
   NaHCO3          1.097e-07   1.100e-07    -6.960    -6.958     0.001     16.96
   NaSO4-          3.853e-08   3.517e-08    -7.414    -7.454    -0.040     16.60
   Na2SO4          4.099e-16   4.105e-16   -15.387   -15.387     0.001     52.39
O(0)          2.956e-18
   O2              1.478e-18   1.480e-18   -17.830   -17.830     0.001     29.71
S(-2)         0.000e+00
   HS-             0.000e+00   0.000e+00  -118.385  -118.426    -0.040     20.21
   H2S             0.000e+00   0.000e+00  -118.492  -118.491     0.001     34.07
   S-2             0.000e+00   0.000e+00  -124.313  -124.469    -0.156     (0)  
   (H2S)2          0.000e+00   0.000e+00  -238.353  -238.353     0.001     30.40
S(6)          1.300e-04
   SO4-2           1.146e-04   8.003e-05    -3.941    -4.097    -0.156     13.31
   CaSO4           1.513e-05   1.514e-05    -4.820    -4.820     0.000      6.28
   MgSO4           2.274e-07   2.282e-07    -6.643    -6.642     0.002     -1.17
   NaSO4-          3.853e-08   3.517e-08    -7.414    -7.454    -0.040     16.60
   KSO4-           1.175e-08   1.079e-08    -7.930    -7.967    -0.037     20.62
   HSO4-           5.473e-10   4.994e-10    -9.262    -9.302    -0.040     39.70
   Mg(SO4)2-2      9.847e-11   7.007e-11   -10.007   -10.154    -0.148     34.76
   CaHSO4+         1.166e-11   1.064e-11   -10.933   -10.973    -0.040     (0)  
   Na2SO4          4.099e-16   4.105e-16   -15.387   -15.387     0.001     52.39

------------------------------Saturation indices-------------------------------

  Phase               SI** log IAP   log K(290 K,   1 atm)

  Anhydrite        -2.66     -6.85   -4.19  CaSO4
  Aragonite        -0.10     -8.39   -8.29  CaCO3
  Arcanite        -12.19    -14.18   -1.99  K2SO4
  Calcite           0.00     -8.39   -8.39  CaCO3
  CH2O            -61.36    -61.36    0.00  CH2O
  CH4(g)         -116.93   -119.65   -2.72  CH4
  CO2(g)           -1.70     -3.07   -1.37  CO2	 Pressure   0.0 atm, phi 1.000
  Dolomite         -1.94    -18.90  -16.96  CaMg(CO3)2
  Epsomite         -7.18     -8.97   -1.79  MgSO4:7H2O
  Gypsum           -2.32     -6.85   -4.52  CaSO4:2H2O
  H2(g)           -35.55    -38.63   -3.08  H2
  H2O(g)           -1.71     -0.00    1.71  H2O
  H2S(g)         -117.59   -125.54   -7.95  H2S
  Halite          -10.02     -8.46    1.56  NaCl
  Hexahydrite      -7.39     -8.97   -1.58  MgSO4:6H2O
  Kieserite        -7.75     -8.97   -1.22  MgSO4:H2O
  Mirabilite      -11.34    -12.62   -1.28  Na2SO4:10H2O
  O2(g)           -15.00    -17.83   -2.83  O2	 Pressure   0.0 atm, phi 1.000
  Sulfur          -88.05    -82.97    5.07  S
  Sylvite         -10.10     -9.24    0.86  KCl
  Thenardite      -13.38    -12.62    0.76  Na2SO4

**For a gas, SI = log10(fugacity). Fugacity = pressure * phi / 1 atm.
  For ideal gases, phi = 1.

------------------
End of simulation.
------------------

------------------------------------
Reading input data for simulation 4.
------------------------------------

	SELECTED_OUTPUT 101
			active false
	INVERSE_MODELING 1 Vendome Well
	    lon_netpath Vendome
	    pat_netpath Vendome
	    solutions      34    33   31       15
	    uncertainty    0.1
	    phases
	        Calcite                     13C   0      4        14C   0      1
	        Dolomite                    13C   0      4        14C   0      1
	        Gypsum
	        Albite                dis
	        Chalcedony
	        Kaolinite
	        CO2(g)		      dis   13C   -17    5        14C   100    1
		Halite
		NaBr
	    balances
	        Cl          
	        I           
	        Br  
	    minimal
	    mineral_water     false
	END
---------------------------------------------
Beginning of inverse modeling 1 calculations.
---------------------------------------------

Using Cl1 standard precision optimization routine.
WARNING: K is included in solution 33, but is not included as a mass-balance constraint.
WARNING: Ba is included in solution 31, but is not included as a mass-balance constraint.
WARNING: F is included in solution 31, but is not included as a mass-balance constraint.
WARNING: K is included in solution 31, but is not included as a mass-balance constraint.
WARNING: Li is included in solution 31, but is not included as a mass-balance constraint.
WARNING: N(-3) is included in solution 31, but is not included as a mass-balance constraint.
WARNING: Sr is included in solution 31, but is not included as a mass-balance constraint.
WARNING: Ba is included in solution 15, but is not included as a mass-balance constraint.
WARNING: F is included in solution 15, but is not included as a mass-balance constraint.
WARNING: K is included in solution 15, but is not included as a mass-balance constraint.
WARNING: Li is included in solution 15, but is not included as a mass-balance constraint.
WARNING: N(-3) is included in solution 15, but is not included as a mass-balance constraint.
WARNING: Sr is included in solution 15, but is not included as a mass-balance constraint.

Solution 34: 

                         Input          Delta    Input+Delta
             pH      6.000e+00  +   0.000e+00  =   6.000e+00
             Al      0.000e+00  +   0.000e+00  =   0.000e+00
     Alkalinity      0.000e+00  +   0.000e+00  =   0.000e+00
             Br      0.000e+00  +   0.000e+00  =   0.000e+00
          C(-4)      0.000e+00  +   0.000e+00  =   0.000e+00
           C(4)      3.216e-06  +   0.000e+00  =   3.216e-06
             Ca      0.000e+00  +   0.000e+00  =   0.000e+00
             Cl      0.000e+00  +   0.000e+00  =   0.000e+00
           H(0)      0.000e+00  +   0.000e+00  =   0.000e+00
              I      0.000e+00  +   0.000e+00  =   0.000e+00
             Mg      0.000e+00  +   0.000e+00  =   0.000e+00
             Na      0.000e+00  +   0.000e+00  =   0.000e+00
           O(0)      0.000e+00  +   0.000e+00  =   0.000e+00
          S(-2)      0.000e+00  +   0.000e+00  =   0.000e+00
           S(6)      0.000e+00  +   0.000e+00  =   0.000e+00
             Si      0.000e+00  +   0.000e+00  =   0.000e+00

Solution 31:  01S-02E-01 DCB 1 Harrison, Nace 

                         Input          Delta    Input+Delta
             pH      6.500e+00  +   0.000e+00  =   6.500e+00
             Al      0.000e+00  +   0.000e+00  =   0.000e+00
     Alkalinity      3.767e-03  +   3.767e-04  =   4.143e-03
             Br      2.866e-03  +   1.225e-04  =   2.989e-03
          C(-4)      0.000e+00  +   0.000e+00  =   0.000e+00
           C(4)      4.603e-03  +   0.000e+00  =   4.603e-03
             Ca      9.843e-02  +  -9.843e-03  =   8.859e-02
             Cl      1.682e+00  +   1.849e-02  =   1.700e+00
           H(0)      0.000e+00  +   0.000e+00  =   0.000e+00
              I      5.129e-05  +   4.801e-06  =   5.610e-05
             Mg      5.499e-02  +  -5.499e-03  =   4.949e-02
             Na      1.301e+00  +   1.301e-01  =   1.431e+00
           O(0)      0.000e+00  +   0.000e+00  =   0.000e+00
          S(-2)      0.000e+00  +   0.000e+00  =   0.000e+00
           S(6)      2.053e-04  +   0.000e+00  =   2.053e-04
             Si      0.000e+00  +   0.000e+00  =   0.000e+00

Solution 15:  01S-03E-03 ABA 1        Vendome Well 

                         Input          Delta    Input+Delta
             pH      7.140e+00  +   0.000e+00  =   7.140e+00
             Al      0.000e+00  +   0.000e+00  =   0.000e+00
     Alkalinity      5.563e-03  +  -5.563e-04  =   5.006e-03
             Br      2.607e-05  +   0.000e+00  =   2.607e-05
          C(-4)      0.000e+00  +   0.000e+00  =   0.000e+00
           C(4)      6.377e-03  +   0.000e+00  =   6.377e-03
             Ca      2.163e-03  +   2.163e-04  =   2.380e-03
             Cl      1.577e-02  +  -9.446e-04  =   1.483e-02
           H(0)      0.000e+00  +   0.000e+00  =   0.000e+00
              I      4.892e-07  +   0.000e+00  =   4.892e-07
             Mg      1.539e-03  +   1.350e-04  =   1.674e-03
             Na      1.374e-02  +  -1.258e-03  =   1.248e-02
           O(0)      0.000e+00  +   0.000e+00  =   0.000e+00
          S(-2)      0.000e+00  +   0.000e+00  =   0.000e+00
           S(6)      3.663e-04  +   0.000e+00  =   3.663e-04
             Si      0.000e+00  +   0.000e+00  =   0.000e+00

Solution fractions:                   Minimum        Maximum
   Solution  34      9.913e-01      0.000e+00      0.000e+00
   Solution  33      0.000e+00      0.000e+00      0.000e+00
   Solution  31      8.721e-03      0.000e+00      0.000e+00
   Solution  15      1.000e+00      0.000e+00      0.000e+00

Phase mole transfers:                 Minimum        Maximum   Formula             (Approximate SI in solution 34, 33, 31, 15 at 292 K,   1 atm)
       Dolomite      1.243e-03      0.000e+00      0.000e+00   CaMg(CO3)2                 (      , -1.91,  0.60, -0.14)
         Gypsum      3.645e-04      0.000e+00      0.000e+00   CaSO4:2H2O                 (      , -2.32, -2.22, -2.18)
         CO2(g)      3.849e-03      0.000e+00      0.000e+00   CO2                        ( -4.17, -1.71, -1.36, -1.68)

Redox mole transfers:    

Sum of residuals (epsilons in documentation):         4.440e+00
Sum of delta/uncertainty limit:                       9.865e+00
Maximum fractional error in element concentration:    1.000e-01

Model contains minimum number of phases.
===============================================================================


Solution 33: Solution after simulation 3.

                         Input          Delta    Input+Delta
             pH      7.119e+00  +   0.000e+00  =   7.119e+00
             Al      0.000e+00  +   0.000e+00  =   0.000e+00
     Alkalinity      4.877e-03  +  -1.000e-05  =   4.867e-03
             Br      0.000e+00  +   0.000e+00  =   0.000e+00
          C(-4)      0.000e+00  +   0.000e+00  =   0.000e+00
           C(4)      5.721e-03  +   0.000e+00  =   5.721e-03
             Ca      2.548e-03  +   0.000e+00  =   2.548e-03
             Cl      7.000e-05  +   0.000e+00  =   7.000e-05
           H(0)      0.000e+00  +   0.000e+00  =   0.000e+00
              I      0.000e+00  +   0.000e+00  =   0.000e+00
             Mg      2.000e-05  +   0.000e+00  =   2.000e-05
             Na      6.000e-05  +   0.000e+00  =   6.000e-05
           O(0)      0.000e+00  +   0.000e+00  =   0.000e+00
          S(-2)      0.000e+00  +   0.000e+00  =   0.000e+00
           S(6)      1.300e-04  +   0.000e+00  =   1.300e-04
             Si      0.000e+00  +   0.000e+00  =   0.000e+00

Solution 31:  01S-02E-01 DCB 1 Harrison, Nace 

                         Input          Delta    Input+Delta
             pH      6.500e+00  +   0.000e+00  =   6.500e+00
             Al      0.000e+00  +   0.000e+00  =   0.000e+00
     Alkalinity      3.767e-03  +   3.767e-04  =   4.143e-03
             Br      2.866e-03  +   8.775e-05  =   2.954e-03
          C(-4)      0.000e+00  +   0.000e+00  =   0.000e+00
           C(4)      4.603e-03  +   0.000e+00  =   4.603e-03
             Ca      9.843e-02  +  -9.843e-03  =   8.859e-02
             Cl      1.682e+00  +   1.853e-02  =   1.700e+00
           H(0)      0.000e+00  +   0.000e+00  =   0.000e+00
              I      5.129e-05  +   4.150e-06  =   5.544e-05
             Mg      5.499e-02  +  -5.499e-03  =   4.949e-02
             Na      1.301e+00  +   1.301e-01  =   1.431e+00
           O(0)      0.000e+00  +   0.000e+00  =   0.000e+00
          S(-2)      0.000e+00  +   0.000e+00  =   0.000e+00
           S(6)      2.053e-04  +   0.000e+00  =   2.053e-04
             Si      0.000e+00  +   0.000e+00  =   0.000e+00

Solution 15:  01S-03E-03 ABA 1        Vendome Well 

                         Input          Delta    Input+Delta
             pH      7.140e+00  +   0.000e+00  =   7.140e+00
             Al      0.000e+00  +   0.000e+00  =   0.000e+00
     Alkalinity      5.563e-03  +  -5.563e-04  =   5.006e-03
             Br      2.607e-05  +   0.000e+00  =   2.607e-05
          C(-4)      0.000e+00  +   0.000e+00  =   0.000e+00
           C(4)      6.377e-03  +  -5.928e-04  =   5.785e-03
             Ca      2.163e-03  +   2.163e-04  =   2.380e-03
             Cl      1.577e-02  +  -7.005e-04  =   1.507e-02
           H(0)      0.000e+00  +   0.000e+00  =   0.000e+00
              I      4.892e-07  +   0.000e+00  =   4.892e-07
             Mg      1.539e-03  +   1.539e-04  =   1.693e-03
             Na      1.374e-02  +  -1.052e-03  =   1.269e-02
           O(0)      0.000e+00  +   0.000e+00  =   0.000e+00
          S(-2)      0.000e+00  +   0.000e+00  =   0.000e+00
           S(6)      3.663e-04  +   0.000e+00  =   3.663e-04
             Si      0.000e+00  +   0.000e+00  =   0.000e+00

Solution fractions:                   Minimum        Maximum
   Solution  34      0.000e+00      0.000e+00      0.000e+00
   Solution  33      9.912e-01      0.000e+00      0.000e+00
   Solution  31      8.823e-03      0.000e+00      0.000e+00
   Solution  15      1.000e+00      0.000e+00      0.000e+00

Phase mole transfers:                 Minimum        Maximum   Formula             (Approximate SI in solution 34, 33, 31, 15 at 292 K,   1 atm)
        Calcite     -2.400e-03      0.000e+00      0.000e+00   CaCO3                      (      ,  0.02,  0.28, -0.08)
       Dolomite      1.237e-03      0.000e+00      0.000e+00   CaMg(CO3)2                 (      , -1.91,  0.60, -0.14)
         Gypsum      2.356e-04      0.000e+00      0.000e+00   CaSO4:2H2O                 (      , -2.32, -2.22, -2.18)

Redox mole transfers:    

Sum of residuals (epsilons in documentation):         5.206e+00
Sum of delta/uncertainty limit:                       1.038e+01
Maximum fractional error in element concentration:    1.000e-01

Model contains minimum number of phases.
===============================================================================


Summary of inverse modeling:

	Number of models found: 2
	Number of minimal models found: 2
	Number of infeasible sets of phases saved: 17
	Number of calls to cl1: 36
------------------
End of simulation.
------------------

------------------------------------
Reading input data for simulation 5.
------------------------------------

