WARNING: Database file from DATABASE keyword is used; command line argument ignored.
   Input file: NH4_2_SO4
  Output file: NH4_2_SO4.out
Database file: ../database/Amm.dat

------------------
Reading data base.
------------------

	SOLUTION_MASTER_SPECIES
	SOLUTION_SPECIES
	PHASES
	GAS_BINARY_PARAMETERS
	EXCHANGE_MASTER_SPECIES
	EXCHANGE_SPECIES
	SURFACE_MASTER_SPECIES
	SURFACE_SPECIES
	MEAN_GAMMAS
	RATES
	END
------------------------------------
Reading input data for simulation 1.
------------------------------------

	DATABASE ../database/Amm.dat
	SELECTED_OUTPUT 101
	    file                 NH4_2_SO4_101.sel
	USER_PUNCH 101
	    headings Mu SC
	    start
	10 PUNCH STR_F$(MU, 20, 12)
	20 PUNCH STR_F$(SC, 20, 10)
	    end
	SOLUTION_SPREAD
	temp 20
	units mmol/L
	density 1 calculate
	Number	S(6)	Amm	pH
	1	38	76	7 charge
	2	76	152	7 charge
	3	153	306	7 charge
	4	231	462	7 charge
	5	309	618	7 charge
	6	389	778	7 charge
	7	469	938	7 charge
	8	551	1102	7 charge
	9	633	1266	7 charge
	10	716	1432	7 charge
	11	800	1600	7 charge
	12	971	1942	7 charge
	13	1145	2290	7 charge
	14	1323	2646	7 charge
	15	1504	3008	7 charge
	16	1688	3376	7 charge
	17	1876	3752	7 charge
	18	2067	4134	7 charge
	19	2262	4524	7 charge
	USER_GRAPH 1
	-initial_solutions true
	-axis_scale y_axis 0.9 1.7
	-axis_scale sy_axis 0 250
	-chart_title "Handbook of Chemistry data of (NH4)2SO4, 20 oC"
	-axis_titles "molality" "rho (kg/L) or viscos / viscos_0" "specific conductance / (mmho/cm)"
	-headings rho visc/visc_0 SC
	10  DATA 1.0012,  1.0042,  1.0101,  1.0160,  1.0220,  1.0279,  1.0338,  1.0397,  1.0456,  1.0515,  1.0574,  1.0691,  1.0808,  1.0924,  1.1039,  1.1154,  1.1269,  1.1383,  1.1496 # rho
	20  dim dens(50) : restore 10 : for i = 1 to cell_no : read dens(i) : next i
	30  DATA  1.006,  1.012,  1.025,  1.039,  1.055,  1.071,  1.088,  1.106,  1.125,  1.145,  1.166,  1.208,  1.253,  1.302,  1.356,  1.418,  1.487,  1.563,  1.647 # visc/visc_0
	40  dim v_v0(50) : restore 30 : for i = 1 to cell_no : read v_v0(i) : next i
	50  DATA  7.4,  14.2,  25.7,  36.7,  47.2,  57.4,  67.4,  77,  86.3,  95.5,  105,  122,  139,  156,  171,  185,  198,  210,  220 #  sc*1e3
	60  dim cond(50) : restore 50 : for i = 1 to cell_no : read cond(i) : next i
	62  put((1 - rho / dens(cell_no))^2 + get(1), 1) : put((1 - viscos / viscos_0 / v_v0(cell_no ))^2 + get(2), 2) : put((1 - sc / 1e3 / cond(cell_no ))^2 + get(3), 3)
	64  x = tot("S")
	70  plot_xy x, dens(cell_no ), line_width = 0, color = Red
	72 plot_xy x, v_v0(cell_no ), line_width = 0,     color = Green
	74 plot_xy x, cond(cell_no ), line_width = 0, color = Blue, y_axis = 2
	80  plot_xy x, rho, symbol = None,             color = Red
	90  plot_xy x, viscos / viscos_0 , symbol = None,  color = Green
	100 plot_xy x, sc / 1e3, symbol = None,        color = Blue, y_axis = 2
	130 if cell_no < 19 then end
	140 print 's.d. in density ',      str_f$((get(1) / 18)^0.5 * 100, 0, 2) + ' %'
	150 print 's.d. in viscosity ',    str_f$((get(2) / 18)^0.5 * 100, 0, 2) + ' %'
	160 print 's.d. in conductivity ', str_f$((get(3) / 18)^0.5 * 100, 0, 2) + ' %'
	USER_GRAPH 2
	 -active false
	-initial_solutions true
	-chart_title "Handbook of Chemistry data of (NH4)2SO4, 20 oC"
	-axis_titles "molality" "molality or ionic strength"
	-headings AmmHSO4- AmmH+ Amm SO4-2 mu
	64  x = tot("S")
	70  plot_xy x, mol("AmmHSO4-")
	80  plot_xy x, mol("AmmH+")
	90  plot_xy x, mol("Amm")
	100 plot_xy x, mol("SO4-2")
	110 plot_xy x, mu
-------------------------------------------
Beginning of initial solution calculations.
-------------------------------------------

Initial solution 1.	

-----------------------------Solution composition------------------------------

	Elements           Molality       Moles

	Amm               7.629e-02   7.629e-02
	S(6)              3.814e-02   3.814e-02

----------------------------Description of solution----------------------------

                                       pH  =   5.545      Charge balance
                                       pe  =   4.000    
      Specific Conductance (µS/cm,  20°C)  = 7489
                          Density (g/cm³)  =   1.00128 (Iterated) 
                               Volume (L)  =   1.00375
                        Viscosity (mPa s)  =   1.00914
                        Activity of water  =   0.998
                 Ionic strength (mol/kgw)  =   8.993e-02
                       Mass of water (kg)  =   1.000e+00
                 Total alkalinity (eq/kg)  =   5.214e-13
                         Temperature (°C)  =  20.00
                  Electrical balance (eq)  =   2.050e-12
 Percent error, 100*(Cat-|An|)/(Cat+|An|)  =   0.00
                               Iterations  =   5 (15 overall)
                                  Total H  = 1.110887e+02
                                  Total O  = 5.565879e+01

----------------------------Distribution of species----------------------------

                                               Log       Log       Log    mole V
   Species          Molality    Activity  Molality  Activity     Gamma   cm³/mol

   H+              3.433e-06   2.852e-06    -5.464    -5.545    -0.080      0.00
   OH-             3.107e-09   2.396e-09    -8.508    -8.621    -0.113     -3.99
   H2O             5.551e+01   9.983e-01     1.744    -0.001     0.000     18.05
Amm           7.629e-02
   AmmH+           6.403e-02   4.838e-02    -1.194    -1.315    -0.122     17.94
   AmmHSO4-        1.225e-02   9.807e-03    -1.912    -2.008    -0.096     35.44
   Amm             6.609e-06   6.748e-06    -5.180    -5.171     0.009     24.19
H(0)          1.186e-22
   H2              5.928e-23   6.058e-23   -22.227   -22.218     0.009     14.60
O(0)          0.000e+00
   O2              0.000e+00   0.000e+00   -49.627   -49.618     0.009     29.98
S(6)          3.814e-02
   SO4-2           2.589e-02   1.006e-02    -1.587    -1.997    -0.410     14.34
   AmmHSO4-        1.225e-02   9.807e-03    -1.912    -2.008    -0.096     35.44
   HSO4-           3.180e-06   2.508e-06    -5.498    -5.601    -0.103     40.14

------------------------------Saturation indices-------------------------------

  Phase               SI** log IAP   log K(293 K,   1 atm)

  Amm(g)           -7.07     -5.17    1.90  Amm
  H2(g)           -19.13    -22.22   -3.09  H2
  H2O(g)           -1.63     -0.00    1.63  H2O
  O2(g)           -46.76    -49.62   -2.85  O2

**For a gas, SI = log10(fugacity). Fugacity = pressure * phi / 1 atm.
  For ideal gases, phi = 1.

Initial solution 2.	

-----------------------------Solution composition------------------------------

	Elements           Molality       Moles

	Amm               1.529e-01   1.529e-01
	S(6)              7.644e-02   7.644e-02

----------------------------Description of solution----------------------------

                                       pH  =   5.473      Charge balance
                                       pe  =   4.000    
      Specific Conductance (µS/cm,  20°C)  = 13786
                          Density (g/cm³)  =   1.00429 (Iterated) 
                               Volume (L)  =   1.00579
                        Viscosity (mPa s)  =   1.01573
                        Activity of water  =   0.997
                 Ionic strength (mol/kgw)  =   1.659e-01
                       Mass of water (kg)  =   1.000e+00
                 Total alkalinity (eq/kg)  =   8.369e-14
                         Temperature (°C)  =  20.00
                  Electrical balance (eq)  =  -4.534e-12
 Percent error, 100*(Cat-|An|)/(Cat+|An|)  =  -0.00
                               Iterations  =   5 (35 overall)
                                  Total H  = 1.111653e+02
                                  Total O  = 5.581198e+01

----------------------------Distribution of species----------------------------

                                               Log       Log       Log    mole V
   Species          Molality    Activity  Molality  Activity     Gamma   cm³/mol

   H+              4.175e-06   3.366e-06    -5.379    -5.473    -0.094      0.00
   OH-             2.801e-09   2.027e-09    -8.553    -8.693    -0.140     -3.81
   H2O             5.551e+01   9.966e-01     1.744    -0.001     0.000     18.05
Amm           1.529e-01
   AmmH+           1.211e-01   8.489e-02    -0.917    -1.071    -0.154     18.03
   AmmHSO4-        3.172e-02   2.413e-02    -1.499    -1.617    -0.119     36.27
   Amm             9.658e-06   1.003e-05    -5.015    -4.999     0.017     24.19
H(0)          1.621e-22
   H2              8.104e-23   8.436e-23   -22.091   -22.074     0.017     14.60
O(0)          0.000e+00
   O2              0.000e+00   0.000e+00   -49.924   -49.907     0.017     29.98
S(6)          7.644e-02
   SO4-2           4.471e-02   1.411e-02    -1.350    -1.850    -0.501     14.65
   AmmHSO4-        3.172e-02   2.413e-02    -1.499    -1.617    -0.119     36.27
   HSO4-           5.486e-06   4.150e-06    -5.261    -5.382    -0.121     40.23

------------------------------Saturation indices-------------------------------

  Phase               SI** log IAP   log K(293 K,   1 atm)

  Amm(g)           -6.90     -5.00    1.90  Amm
  H2(g)           -18.99    -22.07   -3.09  H2
  H2O(g)           -1.64     -0.00    1.63  H2O
  O2(g)           -47.05    -49.91   -2.85  O2

**For a gas, SI = log10(fugacity). Fugacity = pressure * phi / 1 atm.
  For ideal gases, phi = 1.

Initial solution 3.	

-----------------------------Solution composition------------------------------

	Elements           Molality       Moles

	Amm               3.091e-01   3.091e-01
	S(6)              1.545e-01   1.545e-01

----------------------------Description of solution----------------------------

                                       pH  =   5.405      Charge balance
                                       pe  =   4.000    
      Specific Conductance (µS/cm,  20°C)  = 25454
                          Density (g/cm³)  =   1.01024 (Iterated) 
                               Volume (L)  =   1.01007
                        Viscosity (mPa s)  =   1.02937
                        Activity of water  =   0.993
                 Ionic strength (mol/kgw)  =   3.055e-01
                       Mass of water (kg)  =   1.000e+00
                 Total alkalinity (eq/kg)  =   3.847e-17
                         Temperature (°C)  =  20.00
                  Electrical balance (eq)  =   1.110e-15
 Percent error, 100*(Cat-|An|)/(Cat+|An|)  =   0.00
                               Iterations  =   6 (59 overall)
                                  Total H  = 1.113215e+02
                                  Total O  = 5.612438e+01

----------------------------Distribution of species----------------------------

                                               Log       Log       Log    mole V
   Species          Molality    Activity  Molality  Activity     Gamma   cm³/mol

   H+              5.027e-06   3.936e-06    -5.299    -5.405    -0.106      0.00
   OH-             2.562e-09   1.728e-09    -8.591    -8.762    -0.171     -3.53
   H2O             5.551e+01   9.935e-01     1.744    -0.003     0.000     18.05
Amm           3.091e-01
   AmmH+           2.300e-01   1.477e-01    -0.638    -0.831    -0.192     18.15
   AmmHSO4-        7.906e-02   5.652e-02    -1.102    -1.248    -0.146     37.38
   Amm             1.391e-05   1.493e-05    -4.857    -4.826     0.031     24.19
H(0)          2.143e-22
   H2              1.071e-22   1.154e-22   -21.970   -21.938     0.032     14.60
O(0)          0.000e+00
   O2              0.000e+00   0.000e+00   -50.212   -50.182     0.031     29.98
S(6)          1.545e-01
   AmmHSO4-        7.906e-02   5.652e-02    -1.102    -1.248    -0.146     37.38
   SO4-2           7.547e-02   1.900e-02    -1.122    -1.721    -0.599     15.16
   HSO4-           8.889e-06   6.534e-06    -5.051    -5.185    -0.134     40.36

------------------------------Saturation indices-------------------------------

  Phase               SI** log IAP   log K(293 K,   1 atm)

  Amm(g)           -6.73     -4.83    1.90  Amm
  H2(g)           -18.85    -21.94   -3.09  H2
  H2O(g)           -1.64     -0.00    1.63  H2O
  O2(g)           -47.33    -50.18   -2.85  O2

**For a gas, SI = log10(fugacity). Fugacity = pressure * phi / 1 atm.
  For ideal gases, phi = 1.

Initial solution 4.	

-----------------------------Solution composition------------------------------

	Elements           Molality       Moles

	Amm               4.687e-01   4.687e-01
	S(6)              2.344e-01   2.344e-01

----------------------------Description of solution----------------------------

                                       pH  =   5.365      Charge balance
                                       pe  =   4.000    
      Specific Conductance (µS/cm,  20°C)  = 36469
                          Density (g/cm³)  =   1.01615 (Iterated) 
                               Volume (L)  =   1.01458
                        Viscosity (mPa s)  =   1.04369
                        Activity of water  =   0.990
                 Ionic strength (mol/kgw)  =   4.369e-01
                       Mass of water (kg)  =   1.000e+00
                 Total alkalinity (eq/kg)  =   6.678e-17
                         Temperature (°C)  =  20.00
                  Electrical balance (eq)  =   5.274e-16
 Percent error, 100*(Cat-|An|)/(Cat+|An|)  =   0.00
                               Iterations  =   7 (94 overall)
                                  Total H  = 1.114812e+02
                                  Total O  = 5.644369e+01

----------------------------Distribution of species----------------------------

                                               Log       Log       Log    mole V
   Species          Molality    Activity  Molality  Activity     Gamma   cm³/mol

   H+              5.597e-06   4.311e-06    -5.252    -5.365    -0.113      0.00
   OH-             2.436e-09   1.572e-09    -8.613    -8.803    -0.190     -3.29
   H2O             5.551e+01   9.903e-01     1.744    -0.004     0.000     18.05
Amm           4.687e-01
   AmmH+           3.356e-01   2.037e-01    -0.474    -0.691    -0.217     18.23
   AmmHSO4-        1.331e-01   9.102e-02    -0.876    -1.041    -0.165     38.19
   Amm             1.700e-05   1.880e-05    -4.770    -4.726     0.044     24.19
H(0)          2.491e-22
   H2              1.245e-22   1.384e-22   -21.905   -21.859     0.046     14.60
O(0)          0.000e+00
   O2              0.000e+00   0.000e+00   -50.386   -50.343     0.044     29.98
S(6)          2.344e-01
   AmmHSO4-        1.331e-01   9.102e-02    -0.876    -1.041    -0.165     38.19
   SO4-2           1.013e-01   2.218e-02    -0.995    -1.654    -0.659     15.62
   HSO4-           1.140e-05   8.356e-06    -4.943    -5.078    -0.135     40.44

------------------------------Saturation indices-------------------------------

  Phase               SI** log IAP   log K(293 K,   1 atm)

  Amm(g)           -6.63     -4.73    1.90  Amm
  H2(g)           -18.77    -21.86   -3.09  H2
  H2O(g)           -1.64     -0.00    1.63  H2O
  O2(g)           -47.49    -50.34   -2.85  O2

**For a gas, SI = log10(fugacity). Fugacity = pressure * phi / 1 atm.
  For ideal gases, phi = 1.

Initial solution 5.	

-----------------------------Solution composition------------------------------

	Elements           Molality       Moles

	Amm               6.299e-01   6.299e-01
	S(6)              3.149e-01   3.149e-01

----------------------------Description of solution----------------------------

                                       pH  =   5.337      Charge balance
                                       pe  =   4.000    
      Specific Conductance (µS/cm,  20°C)  = 46943
                          Density (g/cm³)  =   1.02195 (Iterated) 
                               Volume (L)  =   1.01924
                        Viscosity (mPa s)  =   1.05854
                        Activity of water  =   0.987
                 Ionic strength (mol/kgw)  =   5.624e-01
                       Mass of water (kg)  =   1.000e+00
                 Total alkalinity (eq/kg)  =   1.899e-15
                         Temperature (°C)  =  20.00
                  Electrical balance (eq)  =   1.409e-10
 Percent error, 100*(Cat-|An|)/(Cat+|An|)  =   0.00
                               Iterations  =   7 (129 overall)
                                  Total H  = 1.116423e+02
                                  Total O  = 5.676600e+01

----------------------------Distribution of species----------------------------

                                               Log       Log       Log    mole V
   Species          Molality    Activity  Molality  Activity     Gamma   cm³/mol

   H+              6.043e-06   4.605e-06    -5.219    -5.337    -0.118      0.00
   OH-             2.347e-09   1.468e-09    -8.629    -8.833    -0.204     -3.07
   H2O             5.551e+01   9.872e-01     1.744    -0.006     0.000     18.05
Amm           6.299e-01
   AmmH+           4.387e-01   2.554e-01    -0.358    -0.593    -0.235     18.29
   AmmHSO4-        1.912e-01   1.261e-01    -0.719    -0.899    -0.181     38.86
   Amm             1.938e-05   2.207e-05    -4.713    -4.656     0.056     24.19
H(0)          2.756e-22
   H2              1.378e-22   1.579e-22   -21.861   -21.802     0.059     14.60
O(0)          0.000e+00
   O2              0.000e+00   0.000e+00   -50.516   -50.460     0.056     29.98
S(6)          3.149e-01
   AmmHSO4-        1.912e-01   1.261e-01    -0.719    -0.899    -0.181     38.86
   SO4-2           1.237e-01   2.451e-02    -0.907    -1.611    -0.703     16.04
   HSO4-           1.334e-05   9.860e-06    -4.875    -5.006    -0.131     40.52

------------------------------Saturation indices-------------------------------

  Phase               SI** log IAP   log K(293 K,   1 atm)

  Amm(g)           -6.56     -4.66    1.90  Amm
  H2(g)           -18.71    -21.80   -3.09  H2
  H2O(g)           -1.64     -0.01    1.63  H2O
  O2(g)           -47.61    -50.46   -2.85  O2

**For a gas, SI = log10(fugacity). Fugacity = pressure * phi / 1 atm.
  For ideal gases, phi = 1.

Initial solution 6.	

-----------------------------Solution composition------------------------------

	Elements           Molality       Moles

	Amm               7.968e-01   7.968e-01
	S(6)              3.984e-01   3.984e-01

----------------------------Description of solution----------------------------

                                       pH  =   5.313      Charge balance
                                       pe  =   4.000    
      Specific Conductance (µS/cm,  20°C)  = 57238
                          Density (g/cm³)  =   1.02782 (Iterated) 
                               Volume (L)  =   1.02415
                        Viscosity (mPa s)  =   1.07436
                        Activity of water  =   0.984
                 Ionic strength (mol/kgw)  =   6.871e-01
                       Mass of water (kg)  =   1.000e+00
                 Total alkalinity (eq/kg)  =   1.067e-14
                         Temperature (°C)  =  20.00
                  Electrical balance (eq)  =  -3.320e-10
 Percent error, 100*(Cat-|An|)/(Cat+|An|)  =  -0.00
                               Iterations  =   7 (164 overall)
                                  Total H  = 1.118092e+02
                                  Total O  = 5.709980e+01

----------------------------Distribution of species----------------------------

                                               Log       Log       Log    mole V
   Species          Molality    Activity  Molality  Activity     Gamma   cm³/mol

   H+              6.431e-06   4.859e-06    -5.192    -5.313    -0.122      0.00
   OH-             2.274e-09   1.386e-09    -8.643    -8.858    -0.215     -2.86
   H2O             5.551e+01   9.840e-01     1.744    -0.007     0.000     18.05
Amm           7.968e-01
   AmmH+           5.427e-01   3.054e-01    -0.265    -0.515    -0.250     18.35
   AmmHSO4-        2.540e-01   1.621e-01    -0.595    -0.790    -0.195     39.45
   Amm             2.135e-05   2.501e-05    -4.671    -4.602     0.069     24.19
H(0)          2.978e-22
   H2              1.489e-22   1.758e-22   -21.827   -21.755     0.072     14.60
O(0)          0.000e+00
   O2              0.000e+00   0.000e+00   -50.625   -50.556     0.069     29.98
S(6)          3.984e-01
   AmmHSO4-        2.540e-01   1.621e-01    -0.595    -0.790    -0.195     39.45
   SO4-2           1.443e-01   2.635e-02    -0.841    -1.579    -0.739     16.45
   HSO4-           1.492e-05   1.119e-05    -4.826    -4.951    -0.125     40.58

------------------------------Saturation indices-------------------------------

  Phase               SI** log IAP   log K(293 K,   1 atm)

  Amm(g)           -6.50     -4.60    1.90  Amm
  H2(g)           -18.67    -21.75   -3.09  H2
  H2O(g)           -1.64     -0.01    1.63  H2O
  O2(g)           -47.70    -50.56   -2.85  O2

**For a gas, SI = log10(fugacity). Fugacity = pressure * phi / 1 atm.
  For ideal gases, phi = 1.

Initial solution 7.	

-----------------------------Solution composition------------------------------

	Elements           Molality       Moles

	Amm               9.654e-01   9.654e-01
	S(6)              4.827e-01   4.827e-01

----------------------------Description of solution----------------------------

                                       pH  =   5.294      Charge balance
                                       pe  =   4.000    
      Specific Conductance (µS/cm,  20°C)  = 67144
                          Density (g/cm³)  =   1.03360 (Iterated) 
                               Volume (L)  =   1.02920
                        Viscosity (mPa s)  =   1.09080
                        Activity of water  =   0.981
                 Ionic strength (mol/kgw)  =   8.087e-01
                       Mass of water (kg)  =   1.000e+00
                 Total alkalinity (eq/kg)  =   1.321e-14
                         Temperature (°C)  =  20.00
                  Electrical balance (eq)  =  -4.351e-10
 Percent error, 100*(Cat-|An|)/(Cat+|An|)  =  -0.00
                               Iterations  =   7 (206 overall)
                                  Total H  = 1.119778e+02
                                  Total O  = 5.743700e+01

----------------------------Distribution of species----------------------------

                                               Log       Log       Log    mole V
   Species          Molality    Activity  Molality  Activity     Gamma   cm³/mol

   H+              6.773e-06   5.085e-06    -5.169    -5.294    -0.125      0.00
   OH-             2.211e-09   1.320e-09    -8.655    -8.879    -0.224     -2.67
   H2O             5.551e+01   9.808e-01     1.744    -0.008     0.000     18.05
Amm           9.654e-01
   AmmH+           6.457e-01   3.533e-01    -0.190    -0.452    -0.262     18.39
   AmmHSO4-        3.197e-01   1.980e-01    -0.495    -0.703    -0.208     39.97
   Amm             2.294e-05   2.764e-05    -4.639    -4.558     0.081     24.19
H(0)          3.167e-22
   H2              1.584e-22   1.926e-22   -21.800   -21.715     0.085     14.60
O(0)          0.000e+00
   O2              0.000e+00   0.000e+00   -50.719   -50.638     0.081     29.98
S(6)          4.827e-01
   AmmHSO4-        3.197e-01   1.980e-01    -0.495    -0.703    -0.208     39.97
   SO4-2           1.630e-01   2.782e-02    -0.788    -1.556    -0.768     16.85
   HSO4-           1.617e-05   1.236e-05    -4.791    -4.908    -0.117     40.63

------------------------------Saturation indices-------------------------------

  Phase               SI** log IAP   log K(293 K,   1 atm)

  Amm(g)           -6.46     -4.56    1.90  Amm
  H2(g)           -18.63    -21.72   -3.09  H2
  H2O(g)           -1.64     -0.01    1.63  H2O
  O2(g)           -47.78    -50.64   -2.85  O2

**For a gas, SI = log10(fugacity). Fugacity = pressure * phi / 1 atm.
  For ideal gases, phi = 1.

Initial solution 8.	

-----------------------------Solution composition------------------------------

	Elements           Molality       Moles

	Amm               1.140e+00   1.140e+00
	S(6)              5.700e-01   5.700e-01

----------------------------Description of solution----------------------------

                                       pH  =   5.276      Charge balance
                                       pe  =   4.000    
      Specific Conductance (µS/cm,  20°C)  = 76935
                          Density (g/cm³)  =   1.03945 (Iterated) 
                               Volume (L)  =   1.03451
                        Viscosity (mPa s)  =   1.10831
                        Activity of water  =   0.978
                 Ionic strength (mol/kgw)  =   9.312e-01
                       Mass of water (kg)  =   1.000e+00
                 Total alkalinity (eq/kg)  =   1.172e-14
                         Temperature (°C)  =  20.00
                  Electrical balance (eq)  =  -2.895e-10
 Percent error, 100*(Cat-|An|)/(Cat+|An|)  =  -0.00
                               Iterations  =   7 (248 overall)
                                  Total H  = 1.121525e+02
                                  Total O  = 5.778627e+01

----------------------------Distribution of species----------------------------

                                               Log       Log       Log    mole V
   Species          Molality    Activity  Molality  Activity     Gamma   cm³/mol

   H+              7.093e-06   5.296e-06    -5.149    -5.276    -0.127      0.00
   OH-             2.154e-09   1.264e-09    -8.667    -8.898    -0.232     -2.47
   H2O             5.551e+01   9.775e-01     1.744    -0.010     0.000     18.05
Amm           1.140e+00
   AmmH+           7.506e-01   4.007e-01    -0.125    -0.397    -0.273     18.44
   AmmHSO4-        3.894e-01   2.344e-01    -0.410    -0.630    -0.220     40.46
   Amm             2.429e-05   3.010e-05    -4.615    -4.521     0.093     24.19
H(0)          3.336e-22
   H2              1.668e-22   2.089e-22   -21.778   -21.680     0.098     14.60
O(0)          0.000e+00
   O2              0.000e+00   0.000e+00   -50.805   -50.711     0.093     29.98
S(6)          5.700e-01
   AmmHSO4-        3.894e-01   2.344e-01    -0.410    -0.630    -0.220     40.46
   SO4-2           1.806e-01   2.905e-02    -0.743    -1.537    -0.794     17.24
   HSO4-           1.720e-05   1.344e-05    -4.764    -4.872    -0.107     40.68

------------------------------Saturation indices-------------------------------

  Phase               SI** log IAP   log K(293 K,   1 atm)

  Amm(g)           -6.42     -4.52    1.90  Amm
  H2(g)           -18.59    -21.68   -3.09  H2
  H2O(g)           -1.64     -0.01    1.63  H2O
  O2(g)           -47.86    -50.71   -2.85  O2

**For a gas, SI = log10(fugacity). Fugacity = pressure * phi / 1 atm.
  For ideal gases, phi = 1.

Initial solution 9.	

-----------------------------Solution composition------------------------------

	Elements           Molality       Moles

	Amm               1.317e+00   1.317e+00
	S(6)              6.583e-01   6.583e-01

----------------------------Description of solution----------------------------

                                       pH  =   5.260      Charge balance
                                       pe  =   4.000    
      Specific Conductance (µS/cm,  20°C)  = 86388
                          Density (g/cm³)  =   1.04524 (Iterated) 
                               Volume (L)  =   1.03994
                        Viscosity (mPa s)  =   1.12653
                        Activity of water  =   0.974
                 Ionic strength (mol/kgw)  =   1.052e+00
                       Mass of water (kg)  =   1.000e+00
                 Total alkalinity (eq/kg)  =   8.775e-15
                         Temperature (°C)  =  20.00
                  Electrical balance (eq)  =  -1.231e-10
 Percent error, 100*(Cat-|An|)/(Cat+|An|)  =  -0.00
                               Iterations  =   7 (290 overall)
                                  Total H  = 1.123290e+02
                                  Total O  = 5.813935e+01

----------------------------Distribution of species----------------------------

                                               Log       Log       Log    mole V
   Species          Molality    Activity  Molality  Activity     Gamma   cm³/mol

   H+              7.391e-06   5.493e-06    -5.131    -5.260    -0.129      0.00
   OH-             2.102e-09   1.214e-09    -8.677    -8.916    -0.238     -2.29
   H2O             5.551e+01   9.743e-01     1.744    -0.011     0.000     18.05
Amm           1.317e+00
   AmmH+           8.550e-01   4.468e-01    -0.068    -0.350    -0.282     18.47
   AmmHSO4-        4.615e-01   2.704e-01    -0.336    -0.568    -0.232     40.90
   Amm             2.540e-05   3.236e-05    -4.595    -4.490     0.105     24.19
H(0)          3.485e-22
   H2              1.743e-22   2.247e-22   -21.759   -21.648     0.110     14.60
O(0)          0.000e+00
   O2              0.000e+00   0.000e+00   -50.883   -50.778     0.105     29.98
S(6)          6.583e-01
   AmmHSO4-        4.615e-01   2.704e-01    -0.336    -0.568    -0.232     40.90
   SO4-2           1.968e-01   3.005e-02    -0.706    -1.522    -0.816     17.62
   HSO4-           1.801e-05   1.442e-05    -4.745    -4.841    -0.096     40.73

------------------------------Saturation indices-------------------------------

  Phase               SI** log IAP   log K(293 K,   1 atm)

  Amm(g)           -6.39     -4.49    1.90  Amm
  H2(g)           -18.56    -21.65   -3.09  H2
  H2O(g)           -1.64     -0.01    1.63  H2O
  O2(g)           -47.92    -50.78   -2.85  O2

**For a gas, SI = log10(fugacity). Fugacity = pressure * phi / 1 atm.
  For ideal gases, phi = 1.

Initial solution 10.	

-----------------------------Solution composition------------------------------

	Elements           Molality       Moles

	Amm               1.497e+00   1.497e+00
	S(6)              7.486e-01   7.486e-01

----------------------------Description of solution----------------------------

                                       pH  =   5.246      Charge balance
                                       pe  =   4.000    
      Specific Conductance (µS/cm,  20°C)  = 95637
                          Density (g/cm³)  =   1.05102 (Iterated) 
                               Volume (L)  =   1.04558
                        Viscosity (mPa s)  =   1.14570
                        Activity of water  =   0.971
                 Ionic strength (mol/kgw)  =   1.173e+00
                       Mass of water (kg)  =   1.000e+00
                 Total alkalinity (eq/kg)  =   5.822e-15
                         Temperature (°C)  =  20.00
                  Electrical balance (eq)  =  -2.211e-11
 Percent error, 100*(Cat-|An|)/(Cat+|An|)  =  -0.00
                               Iterations  =   7 (339 overall)
                                  Total H  = 1.125097e+02
                                  Total O  = 5.850074e+01

----------------------------Distribution of species----------------------------

                                               Log       Log       Log    mole V
   Species          Molality    Activity  Molality  Activity     Gamma   cm³/mol

   H+              7.675e-06   5.682e-06    -5.115    -5.246    -0.131      0.00
   OH-             2.053e-09   1.170e-09    -8.688    -8.932    -0.244     -2.10
   H2O             5.551e+01   9.709e-01     1.744    -0.013     0.000     18.05
Amm           1.497e+00
   AmmH+           9.606e-01   4.924e-01    -0.017    -0.308    -0.290     18.51
   AmmHSO4-        5.366e-01   3.063e-01    -0.270    -0.514    -0.243     41.33
   Amm             2.632e-05   3.448e-05    -4.580    -4.462     0.117     24.19
H(0)          3.621e-22
   H2              1.811e-22   2.404e-22   -21.742   -21.619     0.123     14.60
O(0)          0.000e+00
   O2              0.000e+00   0.000e+00   -50.957   -50.839     0.117     29.98
S(6)          7.486e-01
   AmmHSO4-        5.366e-01   3.063e-01    -0.270    -0.514    -0.243     41.33
   SO4-2           2.120e-01   3.088e-02    -0.674    -1.510    -0.837     18.00
   HSO4-           1.865e-05   1.533e-05    -4.729    -4.814    -0.085     40.77

------------------------------Saturation indices-------------------------------

  Phase               SI** log IAP   log K(293 K,   1 atm)

  Amm(g)           -6.36     -4.46    1.90  Amm
  H2(g)           -18.53    -21.62   -3.09  H2
  H2O(g)           -1.65     -0.01    1.63  H2O
  O2(g)           -47.99    -50.84   -2.85  O2

**For a gas, SI = log10(fugacity). Fugacity = pressure * phi / 1 atm.
  For ideal gases, phi = 1.

Initial solution 11.	

-----------------------------Solution composition------------------------------

	Elements           Molality       Moles

	Amm               1.682e+00   1.682e+00
	S(6)              8.411e-01   8.411e-01

----------------------------Description of solution----------------------------

                                       pH  =   5.232      Charge balance
                                       pe  =   4.000    
      Specific Conductance (µS/cm,  20°C)  = 104688
                          Density (g/cm³)  =   1.05682 (Iterated) 
                               Volume (L)  =   1.05141
                        Viscosity (mPa s)  =   1.16588
                        Activity of water  =   0.968
                 Ionic strength (mol/kgw)  =   1.294e+00
                       Mass of water (kg)  =   1.000e+00
                 Total alkalinity (eq/kg)  =   3.483e-15
                         Temperature (°C)  =  20.00
                  Electrical balance (eq)  =   1.456e-11
 Percent error, 100*(Cat-|An|)/(Cat+|An|)  =   0.00
                               Iterations  =   7 (388 overall)
                                  Total H  = 1.126947e+02
                                  Total O  = 5.887072e+01

----------------------------Distribution of species----------------------------

                                               Log       Log       Log    mole V
   Species          Molality    Activity  Molality  Activity     Gamma   cm³/mol

   H+              7.949e-06   5.864e-06    -5.100    -5.232    -0.132      0.00
   OH-             2.007e-09   1.130e-09    -8.697    -8.947    -0.250     -1.92
   H2O             5.551e+01   9.676e-01     1.744    -0.014     0.000     18.05
Amm           1.682e+00
   AmmH+           1.067e+00   5.377e-01     0.028    -0.269    -0.298     18.54
   AmmHSO4-        6.148e-01   3.421e-01    -0.211    -0.466    -0.255     41.73
   Amm             2.708e-05   3.648e-05    -4.567    -4.438     0.129     24.19
H(0)          3.746e-22
   H2              1.873e-22   2.561e-22   -21.727   -21.592     0.136     14.60
O(0)          0.000e+00
   O2              0.000e+00   0.000e+00   -51.027   -50.897     0.129     29.98
S(6)          8.411e-01
   AmmHSO4-        6.148e-01   3.421e-01    -0.211    -0.466    -0.255     41.73
   SO4-2           2.263e-01   3.158e-02    -0.645    -1.501    -0.855     18.38
   HSO4-           1.914e-05   1.618e-05    -4.718    -4.791    -0.073     40.81

------------------------------Saturation indices-------------------------------

  Phase               SI** log IAP   log K(293 K,   1 atm)

  Amm(g)           -6.34     -4.44    1.90  Amm
  H2(g)           -18.50    -21.59   -3.09  H2
  H2O(g)           -1.65     -0.01    1.63  H2O
  O2(g)           -48.04    -50.90   -2.85  O2

**For a gas, SI = log10(fugacity). Fugacity = pressure * phi / 1 atm.
  For ideal gases, phi = 1.

Initial solution 12.	

-----------------------------Solution composition------------------------------

	Elements           Molality       Moles

	Amm               2.066e+00   2.066e+00
	S(6)              1.033e+00   1.033e+00

----------------------------Description of solution----------------------------

                                       pH  =   5.207      Charge balance
                                       pe  =   4.000    
      Specific Conductance (µS/cm,  20°C)  = 122211
                          Density (g/cm³)  =   1.06843 (Iterated) 
                               Volume (L)  =   1.06369
                        Viscosity (mPa s)  =   1.20948
                        Activity of water  =   0.961
                 Ionic strength (mol/kgw)  =   1.538e+00
                       Mass of water (kg)  =   1.000e+00
                 Total alkalinity (eq/kg)  =   6.142e-16
                         Temperature (°C)  =  20.00
                  Electrical balance (eq)  =   9.142e-12
 Percent error, 100*(Cat-|An|)/(Cat+|An|)  =   0.00
                               Iterations  =   7 (437 overall)
                                  Total H  = 1.130781e+02
                                  Total O  = 5.963760e+01

----------------------------Distribution of species----------------------------

                                               Log       Log       Log    mole V
   Species          Molality    Activity  Molality  Activity     Gamma   cm³/mol

   H+              8.475e-06   6.216e-06    -5.072    -5.207    -0.135      0.00
   OH-             1.920e-09   1.058e-09    -8.717    -8.976    -0.259     -1.56
   H2O             5.551e+01   9.606e-01     1.744    -0.017     0.000     18.05
Amm           2.066e+00
   AmmH+           1.286e+00   6.280e-01     0.109    -0.202    -0.311     18.61
   AmmHSO4-        7.801e-01   4.128e-01    -0.108    -0.384    -0.276     42.48
   Amm             2.820e-05   4.019e-05    -4.550    -4.396     0.154     24.19
H(0)          3.967e-22
   H2              1.984e-22   2.877e-22   -21.703   -21.541     0.162     14.60
O(0)          0.000e+00
   O2              0.000e+00   0.000e+00   -51.159   -51.005     0.154     29.98
S(6)          1.033e+00
   AmmHSO4-        7.801e-01   4.128e-01    -0.108    -0.384    -0.276     42.48
   SO4-2           2.528e-01   3.263e-02    -0.597    -1.486    -0.889     19.13
   HSO4-           1.973e-05   1.772e-05    -4.705    -4.751    -0.047     40.89

------------------------------Saturation indices-------------------------------

  Phase               SI** log IAP   log K(293 K,   1 atm)

  Amm(g)           -6.30     -4.40    1.90  Amm
  H2(g)           -18.45    -21.54   -3.09  H2
  H2O(g)           -1.65     -0.02    1.63  H2O
  O2(g)           -48.15    -51.00   -2.85  O2

**For a gas, SI = log10(fugacity). Fugacity = pressure * phi / 1 atm.
  For ideal gases, phi = 1.

Initial solution 13.	

-----------------------------Solution composition------------------------------

	Elements           Molality       Moles

	Amm               2.466e+00   2.466e+00
	S(6)              1.233e+00   1.233e+00

----------------------------Description of solution----------------------------

                                       pH  =   5.183      Charge balance
                                       pe  =   4.000    
      Specific Conductance (µS/cm,  20°C)  = 138880
                          Density (g/cm³)  =   1.08001 (Iterated) 
                               Volume (L)  =   1.07677
                        Viscosity (mPa s)  =   1.25750
                        Activity of water  =   0.953
                 Ionic strength (mol/kgw)  =   1.786e+00
                       Mass of water (kg)  =   1.000e+00
                 Total alkalinity (eq/kg)  =   2.979e-16
                         Temperature (°C)  =  20.00
                  Electrical balance (eq)  =   9.087e-13
 Percent error, 100*(Cat-|An|)/(Cat+|An|)  =   0.00
                               Iterations  =   7 (493 overall)
                                  Total H  = 1.134782e+02
                                  Total O  = 6.043780e+01

----------------------------Distribution of species----------------------------

                                               Log       Log       Log    mole V
   Species          Molality    Activity  Molality  Activity     Gamma   cm³/mol

   H+              8.982e-06   6.555e-06    -5.047    -5.183    -0.137      0.00
   OH-             1.841e-09   9.956e-10    -8.735    -9.002    -0.267     -1.21
   H2O             5.551e+01   9.534e-01     1.744    -0.021     0.000     18.05
Amm           2.466e+00
   AmmH+           1.509e+00   7.181e-01     0.179    -0.144    -0.323     18.66
   AmmHSO4-        9.564e-01   4.819e-01    -0.019    -0.317    -0.298     43.18
   Amm             2.888e-05   4.358e-05    -4.539    -4.361     0.179     24.19
H(0)          4.156e-22
   H2              2.078e-22   3.200e-22   -21.682   -21.495     0.188     14.60
O(0)          0.000e+00
   O2              0.000e+00   0.000e+00   -51.282   -51.104     0.179     29.98
S(6)          1.233e+00
   AmmHSO4-        9.564e-01   4.819e-01    -0.019    -0.317    -0.298     43.18
   SO4-2           2.765e-01   3.332e-02    -0.558    -1.477    -0.919     19.88
   HSO4-           1.990e-05   1.908e-05    -4.701    -4.719    -0.018     40.96

------------------------------Saturation indices-------------------------------

  Phase               SI** log IAP   log K(293 K,   1 atm)

  Amm(g)           -6.26     -4.36    1.90  Amm
  H2(g)           -18.41    -21.49   -3.09  H2
  H2O(g)           -1.65     -0.02    1.63  H2O
  O2(g)           -48.25    -51.10   -2.85  O2

**For a gas, SI = log10(fugacity). Fugacity = pressure * phi / 1 atm.
  For ideal gases, phi = 1.

Initial solution 14.	

-----------------------------Solution composition------------------------------

	Elements           Molality       Moles

	Amm               2.886e+00   2.886e+00
	S(6)              1.443e+00   1.443e+00

----------------------------Description of solution----------------------------

                                       pH  =   5.162      Charge balance
                                       pe  =   4.000    
      Specific Conductance (µS/cm,  20°C)  = 154800
                          Density (g/cm³)  =   1.09163 (Iterated) 
                               Volume (L)  =   1.09074
                        Viscosity (mPa s)  =   1.31066
                        Activity of water  =   0.946
                 Ionic strength (mol/kgw)  =   2.039e+00
                       Mass of water (kg)  =   1.000e+00
                 Total alkalinity (eq/kg)  =   2.547e-12
                         Temperature (°C)  =  20.00
                  Electrical balance (eq)  =  -1.892e-08
 Percent error, 100*(Cat-|An|)/(Cat+|An|)  =  -0.00
                               Iterations  =   6 (541 overall)
                                  Total H  = 1.138985e+02
                                  Total O  = 6.127843e+01

----------------------------Distribution of species----------------------------

                                               Log       Log       Log    mole V
   Species          Molality    Activity  Molality  Activity     Gamma   cm³/mol

   H+              9.478e-06   6.889e-06    -5.023    -5.162    -0.139      0.00
   OH-             1.766e-09   9.399e-10    -8.753    -9.027    -0.274     -0.85
   H2O             5.551e+01   9.459e-01     1.744    -0.024     0.000     18.05
Amm           2.886e+00
   AmmH+           1.741e+00   8.091e-01     0.241    -0.092    -0.333     18.71
   AmmHSO4-        1.145e+00   5.493e-01     0.059    -0.260    -0.319     43.85
   Amm             2.921e-05   4.672e-05    -4.534    -4.330     0.204     24.19
H(0)          4.317e-22
   H2              2.159e-22   3.534e-22   -21.666   -21.452     0.214     14.60
O(0)          0.000e+00
   O2              0.000e+00   0.000e+00   -51.401   -51.197     0.204     29.98
S(6)          1.443e+00
   AmmHSO4-        1.145e+00   5.493e-01     0.059    -0.260    -0.319     43.85
   SO4-2           2.980e-01   3.371e-02    -0.526    -1.472    -0.947     20.64
   HSO4-           1.974e-05   2.029e-05    -4.705    -4.693     0.012     41.02

------------------------------Saturation indices-------------------------------

  Phase               SI** log IAP   log K(293 K,   1 atm)

  Amm(g)           -6.23     -4.33    1.90  Amm
  H2(g)           -18.36    -21.45   -3.09  H2
  H2O(g)           -1.66     -0.02    1.63  H2O
  O2(g)           -48.34    -51.20   -2.85  O2

**For a gas, SI = log10(fugacity). Fugacity = pressure * phi / 1 atm.
  For ideal gases, phi = 1.

Initial solution 15.	

-----------------------------Solution composition------------------------------

	Elements           Molality       Moles

	Amm               3.326e+00   3.326e+00
	S(6)              1.663e+00   1.663e+00

----------------------------Description of solution----------------------------

                                       pH  =   5.142      Charge balance
                                       pe  =   4.000    
      Specific Conductance (µS/cm,  20°C)  = 169885
                          Density (g/cm³)  =   1.10322 (Iterated) 
                               Volume (L)  =   1.10561
                        Viscosity (mPa s)  =   1.36917
                        Activity of water  =   0.938
                 Ionic strength (mol/kgw)  =   2.298e+00
                       Mass of water (kg)  =   1.000e+00
                 Total alkalinity (eq/kg)  =  -1.978e-13
                         Temperature (°C)  =  20.00
                  Electrical balance (eq)  =  -5.016e-09
 Percent error, 100*(Cat-|An|)/(Cat+|An|)  =  -0.00
                               Iterations  =   6 (597 overall)
                                  Total H  = 1.143381e+02
                                  Total O  = 6.215755e+01

----------------------------Distribution of species----------------------------

                                               Log       Log       Log    mole V
   Species          Molality    Activity  Molality  Activity     Gamma   cm³/mol

   H+              9.966e-06   7.218e-06    -5.001    -5.142    -0.140      0.00
   OH-             1.695e-09   8.897e-10    -8.771    -9.051    -0.280     -0.49
   H2O             5.551e+01   9.381e-01     1.744    -0.028     0.000     18.05
Amm           3.326e+00
   AmmH+           1.980e+00   9.011e-01     0.297    -0.045    -0.342     18.76
   AmmHSO4-        1.345e+00   6.144e-01     0.129    -0.212    -0.340     44.49
   Amm             2.926e-05   4.966e-05    -4.534    -4.304     0.230     24.19
H(0)          4.452e-22
   H2              2.226e-22   3.880e-22   -21.652   -21.411     0.241     14.60
O(0)          0.000e+00
   O2              0.000e+00   0.000e+00   -51.515   -51.285     0.230     29.98
S(6)          1.663e+00
   AmmHSO4-        1.345e+00   6.144e-01     0.129    -0.212    -0.340     44.49
   SO4-2           3.175e-01   3.385e-02    -0.498    -1.470    -0.972     21.41
   HSO4-           1.929e-05   2.135e-05    -4.715    -4.671     0.044     41.08

------------------------------Saturation indices-------------------------------

  Phase               SI** log IAP   log K(293 K,   1 atm)

  Amm(g)           -6.21     -4.30    1.90  Amm
  H2(g)           -18.32    -21.41   -3.09  H2
  H2O(g)           -1.66     -0.03    1.63  H2O
  O2(g)           -48.43    -51.28   -2.85  O2

**For a gas, SI = log10(fugacity). Fugacity = pressure * phi / 1 atm.
  For ideal gases, phi = 1.

Initial solution 16.	

-----------------------------Solution composition------------------------------

	Elements           Molality       Moles

	Amm               3.786e+00   3.786e+00
	S(6)              1.893e+00   1.893e+00

----------------------------Description of solution----------------------------

                                       pH  =   5.122      Charge balance
                                       pe  =   4.000    
      Specific Conductance (µS/cm,  20°C)  = 184136
                          Density (g/cm³)  =   1.11479 (Iterated) 
                               Volume (L)  =   1.12141
                        Viscosity (mPa s)  =   1.43355
                        Activity of water  =   0.930
                 Ionic strength (mol/kgw)  =   2.563e+00
                       Mass of water (kg)  =   1.000e+00
                 Total alkalinity (eq/kg)  =   2.316e-16
                         Temperature (°C)  =  20.00
                  Electrical balance (eq)  =  -4.539e-11
 Percent error, 100*(Cat-|An|)/(Cat+|An|)  =  -0.00
                               Iterations  =   7 (661 overall)
                                  Total H  = 1.147983e+02
                                  Total O  = 6.307800e+01

----------------------------Distribution of species----------------------------

                                               Log       Log       Log    mole V
   Species          Molality    Activity  Molality  Activity     Gamma   cm³/mol

   H+              1.045e-05   7.543e-06    -4.981    -5.122    -0.142      0.00
   OH-             1.629e-09   8.440e-10    -8.788    -9.074    -0.285     -0.12
   H2O             5.551e+01   9.299e-01     1.744    -0.032     0.000     18.05
Amm           3.786e+00
   AmmH+           2.228e+00   9.946e-01     0.348    -0.002    -0.350     18.81
   AmmHSO4-        1.558e+00   6.770e-01     0.193    -0.169    -0.362     45.10
   Amm             2.907e-05   5.246e-05    -4.537    -4.280     0.256     24.19
H(0)          4.560e-22
   H2              2.280e-22   4.237e-22   -21.642   -21.373     0.269     14.60
O(0)          0.000e+00
   O2              0.000e+00   0.000e+00   -51.625   -51.369     0.256     29.98
S(6)          1.893e+00
   AmmHSO4-        1.558e+00   6.770e-01     0.193    -0.169    -0.362     45.10
   SO4-2           3.351e-01   3.379e-02    -0.475    -1.471    -0.996     22.19
   HSO4-           1.863e-05   2.227e-05    -4.730    -4.652     0.078     41.14

------------------------------Saturation indices-------------------------------

  Phase               SI** log IAP   log K(293 K,   1 atm)

  Amm(g)           -6.18     -4.28    1.90  Amm
  H2(g)           -18.28    -21.37   -3.09  H2
  H2O(g)           -1.67     -0.03    1.63  H2O
  O2(g)           -48.51    -51.37   -2.85  O2

**For a gas, SI = log10(fugacity). Fugacity = pressure * phi / 1 atm.
  For ideal gases, phi = 1.

Initial solution 17.	

-----------------------------Solution composition------------------------------

	Elements           Molality       Moles

	Amm               4.271e+00   4.271e+00
	S(6)              2.135e+00   2.135e+00

----------------------------Description of solution----------------------------

                                       pH  =   5.104      Charge balance
                                       pe  =   4.000    
      Specific Conductance (µS/cm,  20°C)  = 197623
                          Density (g/cm³)  =   1.12638 (Iterated) 
                               Volume (L)  =   1.13832
                        Viscosity (mPa s)  =   1.50475
                        Activity of water  =   0.921
                 Ionic strength (mol/kgw)  =   2.838e+00
                       Mass of water (kg)  =   1.000e+00
                 Total alkalinity (eq/kg)  =   4.052e-16
                         Temperature (°C)  =  20.00
                  Electrical balance (eq)  =  -4.127e-12
 Percent error, 100*(Cat-|An|)/(Cat+|An|)  =  -0.00
                               Iterations  =   8 (741 overall)
                                  Total H  = 1.152834e+02
                                  Total O  = 6.404819e+01

----------------------------Distribution of species----------------------------

                                               Log       Log       Log    mole V
   Species          Molality    Activity  Molality  Activity     Gamma   cm³/mol

   H+              1.093e-05   7.866e-06    -4.961    -5.104    -0.143      0.00
   OH-             1.566e-09   8.019e-10    -8.805    -9.096    -0.291      0.25
   H2O             5.551e+01   9.214e-01     1.744    -0.036     0.000     18.05
Amm           4.271e+00
   AmmH+           2.487e+00   1.091e+00     0.396     0.038    -0.358     18.86
   AmmHSO4-        1.784e+00   7.370e-01     0.251    -0.133    -0.384     45.71
   Amm             2.869e-05   5.515e-05    -4.542    -4.258     0.284     24.19
H(0)          4.641e-22
   H2              2.320e-22   4.608e-22   -21.634   -21.336     0.298     14.60
O(0)          0.000e+00
   O2              0.000e+00   0.000e+00   -51.734   -51.450     0.284     29.98
S(6)          2.135e+00
   AmmHSO4-        1.784e+00   7.370e-01     0.251    -0.133    -0.384     45.71
   SO4-2           3.512e-01   3.355e-02    -0.454    -1.474    -1.020     22.99
   HSO4-           1.777e-05   2.306e-05    -4.750    -4.637     0.113     41.20

------------------------------Saturation indices-------------------------------

  Phase               SI** log IAP   log K(293 K,   1 atm)

  Amm(g)           -6.16     -4.26    1.90  Amm
  H2(g)           -18.25    -21.34   -3.09  H2
  H2O(g)           -1.67     -0.04    1.63  H2O
  O2(g)           -48.60    -51.45   -2.85  O2

**For a gas, SI = log10(fugacity). Fugacity = pressure * phi / 1 atm.
  For ideal gases, phi = 1.

Initial solution 18.	

-----------------------------Solution composition------------------------------

	Elements           Molality       Moles

	Amm               4.780e+00   4.780e+00
	S(6)              2.390e+00   2.390e+00

----------------------------Description of solution----------------------------

                                       pH  =   5.087      Charge balance
                                       pe  =   4.000    
      Specific Conductance (µS/cm,  20°C)  = 210265
                          Density (g/cm³)  =   1.13794 (Iterated) 
                               Volume (L)  =   1.15633
                        Viscosity (mPa s)  =   1.58308
                        Activity of water  =   0.913
                 Ionic strength (mol/kgw)  =   3.121e+00
                       Mass of water (kg)  =   1.000e+00
                 Total alkalinity (eq/kg)  =  -4.139e-16
                         Temperature (°C)  =  20.00
                  Electrical balance (eq)  =  -1.060e-09
 Percent error, 100*(Cat-|An|)/(Cat+|An|)  =  -0.00
                               Iterations  =   8 (821 overall)
                                  Total H  = 1.157927e+02
                                  Total O  = 6.506675e+01

----------------------------Distribution of species----------------------------

                                               Log       Log       Log    mole V
   Species          Molality    Activity  Molality  Activity     Gamma   cm³/mol

   H+              1.140e-05   8.186e-06    -4.943    -5.087    -0.144      0.00
   OH-             1.506e-09   7.631e-10    -8.822    -9.117    -0.295      0.64
   H2O             5.551e+01   9.125e-01     1.744    -0.040     0.000     18.05
Amm           4.780e+00
   AmmH+           2.756e+00   1.189e+00     0.440     0.075    -0.365     18.90
   AmmHSO4-        2.025e+00   7.939e-01     0.306    -0.100    -0.407     46.30
   Amm             2.816e-05   5.778e-05    -4.550    -4.238     0.312     24.19
H(0)          4.692e-22
   H2              2.346e-22   4.990e-22   -21.630   -21.302     0.328     14.60
O(0)          0.000e+00
   O2              0.000e+00   0.000e+00   -51.840   -51.528     0.312     29.98
S(6)          2.390e+00
   AmmHSO4-        2.025e+00   7.939e-01     0.306    -0.100    -0.407     46.30
   SO4-2           3.656e-01   3.315e-02    -0.437    -1.480    -1.043     23.82
   HSO4-           1.676e-05   2.371e-05    -4.776    -4.625     0.151     41.25

------------------------------Saturation indices-------------------------------

  Phase               SI** log IAP   log K(293 K,   1 atm)

  Amm(g)           -6.14     -4.24    1.90  Amm
  H2(g)           -18.21    -21.30   -3.09  H2
  H2O(g)           -1.67     -0.04    1.63  H2O
  O2(g)           -48.67    -51.53   -2.85  O2

**For a gas, SI = log10(fugacity). Fugacity = pressure * phi / 1 atm.
  For ideal gases, phi = 1.

Initial solution 19.	

-----------------------------Solution composition------------------------------

	Elements           Molality       Moles

	Amm               5.319e+00   5.319e+00
	S(6)              2.659e+00   2.659e+00

----------------------------Description of solution----------------------------

                                       pH  =   5.071      Charge balance
                                       pe  =   4.000    
      Specific Conductance (µS/cm,  20°C)  = 222113
                          Density (g/cm³)  =   1.14952 (Iterated) 
                               Volume (L)  =   1.17562
                        Viscosity (mPa s)  =   1.66973
                        Activity of water  =   0.903
                 Ionic strength (mol/kgw)  =   3.416e+00
                       Mass of water (kg)  =   1.000e+00
                 Total alkalinity (eq/kg)  =  -4.679e-16
                         Temperature (°C)  =  20.00
                  Electrical balance (eq)  =  -1.067e-12
 Percent error, 100*(Cat-|An|)/(Cat+|An|)  =  -0.00
                               Iterations  =   8 (908 overall)
                                  Total H  = 1.163310e+02
                                  Total O  = 6.614326e+01

----------------------------Distribution of species----------------------------

                                               Log       Log       Log    mole V
   Species          Molality    Activity  Molality  Activity     Gamma   cm³/mol

   H+              1.187e-05   8.501e-06    -4.926    -5.071    -0.145      0.00
   OH-             1.450e-09   7.273e-10    -8.839    -9.138    -0.300      1.03
   H2O             5.551e+01   9.031e-01     1.744    -0.044     0.000     18.05
Amm           5.319e+00
   AmmH+           3.038e+00   1.291e+00     0.483     0.111    -0.372     18.95
   AmmHSO4-        2.281e+00   8.476e-01     0.358    -0.072    -0.430     46.88
   Amm             2.750e-05   6.039e-05    -4.561    -4.219     0.342     24.19
H(0)          4.713e-22
   H2              2.356e-22   5.382e-22   -21.628   -21.269     0.359     14.60
O(0)          0.000e+00
   O2              0.000e+00   0.000e+00   -51.944   -51.602     0.342     29.98
S(6)          2.659e+00
   AmmHSO4-        2.281e+00   8.476e-01     0.358    -0.072    -0.430     46.88
   SO4-2           3.786e-01   3.261e-02    -0.422    -1.487    -1.065     24.66
   HSO4-           1.563e-05   2.422e-05    -4.806    -4.616     0.190     41.31

------------------------------Saturation indices-------------------------------

  Phase               SI** log IAP   log K(293 K,   1 atm)

  Amm(g)           -6.12     -4.22    1.90  Amm
  H2(g)           -18.18    -21.27   -3.09  H2
  H2O(g)           -1.68     -0.04    1.63  H2O
  O2(g)           -48.75    -51.60   -2.85  O2

**For a gas, SI = log10(fugacity). Fugacity = pressure * phi / 1 atm.
  For ideal gases, phi = 1.

------------------
End of simulation.
------------------

------------------------------------
Reading input data for simulation 2.
------------------------------------

