WARNING: Database file from DATABASE keyword is used; command line argument ignored.
   Input file: np.test
  Output file: np.test.out
Database file: ../database/phreeqc.dat

------------------
Reading data base.
------------------

	SOLUTION_MASTER_SPECIES
	SOLUTION_SPECIES
	PHASES
	GAS_BINARY_PARAMETERS
	EXCHANGE_MASTER_SPECIES
	EXCHANGE_SPECIES
	SURFACE_MASTER_SPECIES
	SURFACE_SPECIES
	MEAN_GAMMAS
	RATES
	END
------------------------------------
Reading input data for simulation 1.
------------------------------------

	DATABASE ../database/phreeqc.dat
	SELECTED_OUTPUT 101
	    file                 np.test_101.sel
	USER_PUNCH 101
	    headings Mu SC
	    start
	10 PUNCH STR_F$(MU, 20, 12)
	20 PUNCH STR_F$(SC, 20, 10)
	    end
	knobs
		logfile
	PRINT
		status false
	SOLUTION 1
		units 	mmol/l
		pH 	6.2
		Si	0.273
		Ca	0.078
		Mg	0.029
		Na	0.134
		K	0.028
		Alkalinity	0.328
		S(6)	0.010
		Cl	0.014
	SOLUTION 2
		units 	mmol/l
		pH	6.8
		Si	0.41
		Ca	0.26
		Mg	0.071
		Na	0.259
		K	0.04
		Alkalinity	0.895
		S(6)		0.025
		Cl		0.03
	END
-------------------------------------------
Beginning of initial solution calculations.
-------------------------------------------

Initial solution 1.	

-----------------------------Solution composition------------------------------

	Elements           Molality       Moles

	Alkalinity        3.280e-04   3.280e-04
	Ca                7.800e-05   7.800e-05
	Cl                1.400e-05   1.400e-05
	K                 2.800e-05   2.800e-05
	Mg                2.900e-05   2.900e-05
	Na                1.340e-04   1.340e-04
	S(6)              1.000e-05   1.000e-05
	Si                2.730e-04   2.730e-04

----------------------------Description of solution----------------------------

                                       pH  =   6.200    
                                       pe  =   4.000    
      Specific Conductance (µS/cm,  25°C)  = 38
                          Density (g/cm³)  =   0.99708
                               Volume (L)  =   1.00300
                        Viscosity (mPa s)  =   0.89036
                        Activity of water  =   1.000
                 Ionic strength (mol/kgw)  =   4.858e-04
                       Mass of water (kg)  =   1.000e+00
                    Total carbon (mol/kg)  =   7.829e-04
                       Total CO2 (mol/kg)  =   7.829e-04
                         Temperature (°C)  =  25.00
                  Electrical balance (eq)  =   1.400e-05
 Percent error, 100*(Cat-|An|)/(Cat+|An|)  =   1.90
                               Iterations  =   6
                                  Total H  = 1.110139e+02
                                  Total O  = 5.550924e+01

----------------------------Distribution of species----------------------------

                                               Log       Log       Log    mole V
   Species          Molality    Activity  Molality  Activity     Gamma   cm³/mol

   H+              6.465e-07   6.310e-07    -6.189    -6.200    -0.011      0.00
   OH-             1.645e-08   1.604e-08    -7.784    -7.795    -0.011     -4.12
   H2O             5.551e+01   1.000e+00     1.744    -0.000     0.000     18.07
C(4)          7.829e-04
   CO2             4.544e-04   4.544e-04    -3.343    -3.343     0.000     34.79
   HCO3-           3.284e-04   3.203e-04    -3.484    -3.494    -0.011     24.54
   MgHCO3+         1.004e-07   9.787e-08    -6.998    -7.009    -0.011      5.47
   CO3-2           2.630e-08   2.381e-08    -7.580    -7.623    -0.043     -4.72
   NaHCO3          2.068e-08   2.069e-08    -7.684    -7.684     0.000     17.66
   KHCO3           3.905e-09   3.906e-09    -8.408    -8.408     0.000     21.42
   (CO2)2          3.357e-09   3.357e-09    -8.474    -8.474     0.000     68.75
   CaCO3           2.820e-09   2.820e-09    -8.550    -8.550     0.000    -14.60
   MgCO3           5.932e-10   5.932e-10    -9.227    -9.227     0.000    -17.09
   CaHCO3+         2.030e-12   1.980e-12   -11.692   -11.703    -0.011      9.66
Ca            7.800e-05
   Ca+2            7.791e-05   7.052e-05    -4.108    -4.152    -0.043    -18.17
   CaSO4           8.755e-08   8.756e-08    -7.058    -7.058     0.000      7.22
   CaCO3           2.820e-09   2.820e-09    -8.550    -8.550     0.000    -14.60
   CaOH+           1.902e-11   1.855e-11   -10.721   -10.732    -0.011     (0)  
   CaHCO3+         2.030e-12   1.980e-12   -11.692   -11.703    -0.011      9.66
   CaHSO4+         4.747e-13   4.629e-13   -12.324   -12.334    -0.011     (0)  
Cl            1.400e-05
   Cl-             1.400e-05   1.365e-05    -4.854    -4.865    -0.011     18.07
   HCl             2.966e-12   2.967e-12   -11.528   -11.528     0.000     20.36
H(0)          5.636e-24
   H2              2.818e-24   2.818e-24   -23.550   -23.550     0.000     14.99
K             2.800e-05
   K+              2.799e-05   2.730e-05    -4.553    -4.564    -0.011      9.00
   KHCO3           3.905e-09   3.906e-09    -8.408    -8.408     0.000     21.42
   KSO4-           3.789e-09   3.697e-09    -8.421    -8.432    -0.011     17.92
Mg            2.900e-05
   Mg+2            2.884e-05   2.611e-05    -4.540    -4.583    -0.043    -21.86
   MgHCO3+         1.004e-07   9.787e-08    -6.998    -7.009    -0.011      5.47
   MgSO4           6.084e-08   6.086e-08    -7.216    -7.216     0.000     -0.40
   MgCO3           5.932e-10   5.932e-10    -9.227    -9.227     0.000    -17.09
   MgOH+           1.540e-10   1.503e-10    -9.812    -9.823    -0.011     (0)  
   Mg(SO4)2-2      1.969e-12   1.784e-12   -11.706   -11.749    -0.043     32.83
Na            1.340e-04
   Na+             1.340e-04   1.307e-04    -3.873    -3.884    -0.011     -1.49
   NaHCO3          2.068e-08   2.069e-08    -7.684    -7.684     0.000     17.66
   NaSO4-          1.048e-08   1.022e-08    -7.980    -7.991    -0.011     16.53
   Na2SO4          6.508e-16   6.509e-16   -15.187   -15.186     0.000     47.96
O(0)          0.000e+00
   O2              0.000e+00   0.000e+00   -45.263   -45.263     0.000     30.40
S(6)          1.000e-05
   SO4-2           9.837e-06   8.901e-06    -5.007    -5.051    -0.043     14.51
   CaSO4           8.755e-08   8.756e-08    -7.058    -7.058     0.000      7.22
   MgSO4           6.084e-08   6.086e-08    -7.216    -7.216     0.000     -0.40
   NaSO4-          1.048e-08   1.022e-08    -7.980    -7.991    -0.011     16.53
   KSO4-           3.789e-09   3.697e-09    -8.421    -8.432    -0.011     17.92
   HSO4-           5.600e-10   5.460e-10    -9.252    -9.263    -0.011     40.27
   Mg(SO4)2-2      1.969e-12   1.784e-12   -11.706   -11.749    -0.043     32.83
   CaHSO4+         4.747e-13   4.629e-13   -12.324   -12.334    -0.011     (0)  
   Na2SO4          6.508e-16   6.509e-16   -15.187   -15.186     0.000     47.96
Si            2.730e-04
   H4SiO4          2.729e-04   2.730e-04    -3.564    -3.564     0.000     52.08
   H3SiO4-         6.542e-08   6.379e-08    -7.184    -7.195    -0.011     27.96
   H2SiO4-2        7.598e-15   6.877e-15   -14.119   -14.163    -0.043     (0)  

------------------------------Saturation indices-------------------------------

  Phase               SI** log IAP   log K(298 K,   1 atm)

  Anhydrite        -4.89     -9.20   -4.31  CaSO4
  Aragonite        -3.44    -11.77   -8.34  CaCO3
  Arcanite        -12.30    -14.18   -1.88  K2SO4
  Calcite          -3.33    -11.77   -8.45  CaCO3
  Chalcedony       -0.01     -3.56   -3.55  SiO2
  Chrysotile      -15.88     16.32   32.20  Mg3Si2O5(OH)4
  CO2(g)           -1.87     -3.34   -1.47  CO2
  Dolomite         -6.90    -23.98  -17.08  CaMg(CO3)2
  Epsomite         -7.90     -9.63   -1.74  MgSO4:7H2O
  Gypsum           -4.65     -9.20   -4.55  CaSO4:2H2O
  H2(g)           -20.45    -23.55   -3.10  H2
  H2O(g)           -1.50     -0.00    1.50  H2O
  Halite          -10.32     -8.75    1.57  NaCl
  Hexahydrite      -8.07     -9.63   -1.57  MgSO4:6H2O
  Kieserite        -8.47     -9.63   -1.16  MgSO4:H2O
  Mirabilite      -12.11    -12.82   -0.71  Na2SO4:10H2O
  O2(g)           -42.37    -45.26   -2.89  O2
  Quartz            0.42     -3.56   -3.98  SiO2
  Sepiolite       -10.82      4.94   15.76  Mg2Si3O7.5OH:3H2O
  Sepiolite(d)    -13.72      4.94   18.66  Mg2Si3O7.5OH:3H2O
  SiO2(a)          -0.85     -3.56   -2.71  SiO2
  Sylvite         -10.33     -9.43    0.90  KCl
  Talc            -12.20      9.20   21.40  Mg3Si4O10(OH)2
  Thenardite      -13.47    -12.82    0.65  Na2SO4

**For a gas, SI = log10(fugacity). Fugacity = pressure * phi / 1 atm.
  For ideal gases, phi = 1.

Initial solution 2.	

-----------------------------Solution composition------------------------------

	Elements           Molality       Moles

	Alkalinity        8.951e-04   8.951e-04
	Ca                2.600e-04   2.600e-04
	Cl                3.000e-05   3.000e-05
	K                 4.000e-05   4.000e-05
	Mg                7.101e-05   7.101e-05
	Na                2.590e-04   2.590e-04
	S(6)              2.500e-05   2.500e-05
	Si                4.100e-04   4.100e-04

----------------------------Description of solution----------------------------

                                       pH  =   6.800    
                                       pe  =   4.000    
      Specific Conductance (µS/cm,  25°C)  = 97
                          Density (g/cm³)  =   0.99712
                               Volume (L)  =   1.00301
                        Viscosity (mPa s)  =   0.89068
                        Activity of water  =   1.000
                 Ionic strength (mol/kgw)  =   1.319e-03
                       Mass of water (kg)  =   1.000e+00
                    Total carbon (mol/kg)  =   1.200e-03
                       Total CO2 (mol/kg)  =   1.200e-03
                         Temperature (°C)  =  25.00
                  Electrical balance (eq)  =  -1.400e-05
 Percent error, 100*(Cat-|An|)/(Cat+|An|)  =  -0.73
                               Iterations  =   6 (12 overall)
                                  Total H  = 1.110150e+02
                                  Total O  = 5.551125e+01

----------------------------Distribution of species----------------------------

                                               Log       Log       Log    mole V
   Species          Molality    Activity  Molality  Activity     Gamma   cm³/mol

   H+              1.647e-07   1.585e-07    -6.783    -6.800    -0.017      0.00
   OH-             6.653e-08   6.386e-08    -7.177    -7.195    -0.018     -4.10
   H2O             5.551e+01   1.000e+00     1.744    -0.000     0.000     18.07
C(4)          1.200e-03
   HCO3-           8.932e-04   8.582e-04    -3.049    -3.066    -0.017     24.57
   CO2             3.057e-04   3.058e-04    -3.515    -3.515     0.000     34.79
   MgHCO3+         6.246e-07   5.997e-07    -6.204    -6.222    -0.018      5.48
   CO3-2           2.981e-07   2.539e-07    -6.526    -6.595    -0.070     -4.65
   NaHCO3          1.054e-07   1.055e-07    -6.977    -6.977     0.000     17.66
   CaCO3           9.418e-08   9.421e-08    -7.026    -7.026     0.000    -14.60
   KHCO3           1.471e-08   1.471e-08    -7.833    -7.832     0.000     21.42
   MgCO3           1.447e-08   1.447e-08    -7.840    -7.840     0.000    -17.09
   (CO2)2          1.520e-09   1.520e-09    -8.818    -8.818     0.000     68.75
   CaHCO3+         1.729e-11   1.662e-11   -10.762   -10.779    -0.017      9.67
Ca            2.600e-04
   Ca+2            2.593e-04   2.209e-04    -3.586    -3.656    -0.070    -18.13
   CaSO4           6.291e-07   6.292e-07    -6.201    -6.201     0.000      7.22
   CaCO3           9.418e-08   9.421e-08    -7.026    -7.026     0.000    -14.60
   CaOH+           2.409e-10   2.313e-10    -9.618    -9.636    -0.018     (0)  
   CaHCO3+         1.729e-11   1.662e-11   -10.762   -10.779    -0.017      9.67
   CaHSO4+         8.703e-13   8.356e-13   -12.060   -12.078    -0.018     (0)  
Cl            3.000e-05
   Cl-             3.000e-05   2.880e-05    -4.523    -4.541    -0.018     18.08
   HCl             1.571e-12   1.573e-12   -11.804   -11.803     0.001     20.36
H(0)          3.555e-25
   H2              1.778e-25   1.778e-25   -24.750   -24.750     0.000     14.99
K             4.000e-05
   K+              3.998e-05   3.837e-05    -4.398    -4.416    -0.018      9.01
   KHCO3           1.471e-08   1.471e-08    -7.833    -7.832     0.000     21.42
   KSO4-           1.241e-08   1.193e-08    -7.906    -7.924    -0.017     18.53
Mg            7.101e-05
   Mg+2            7.005e-05   5.972e-05    -4.155    -4.224    -0.069    -21.81
   MgHCO3+         6.246e-07   5.997e-07    -6.204    -6.222    -0.018      5.48
   MgSO4           3.192e-07   3.194e-07    -6.496    -6.496     0.000     -0.40
   MgCO3           1.447e-08   1.447e-08    -7.840    -7.840     0.000    -17.09
   MgOH+           1.423e-09   1.368e-09    -8.847    -8.864    -0.017     (0)  
   Mg(SO4)2-2      2.514e-11   2.148e-11   -10.600   -10.668    -0.068     34.32
Na            2.590e-04
   Na+             2.589e-04   2.486e-04    -3.587    -3.604    -0.018     -1.47
   NaHCO3          1.054e-07   1.055e-07    -6.977    -6.977     0.000     17.66
   NaSO4-          4.646e-08   4.461e-08    -7.333    -7.351    -0.018     16.62
   Na2SO4          5.406e-15   5.407e-15   -14.267   -14.267     0.000     47.96
O(0)          0.000e+00
   O2              0.000e+00   0.000e+00   -42.863   -42.863     0.000     30.40
S(6)          2.500e-05
   SO4-2           2.399e-05   2.042e-05    -4.620    -4.690    -0.070     14.54
   CaSO4           6.291e-07   6.292e-07    -6.201    -6.201     0.000      7.22
   MgSO4           3.192e-07   3.194e-07    -6.496    -6.496     0.000     -0.40
   NaSO4-          4.646e-08   4.461e-08    -7.333    -7.351    -0.018     16.62
   KSO4-           1.241e-08   1.193e-08    -7.906    -7.924    -0.017     18.53
   HSO4-           3.278e-10   3.147e-10    -9.484    -9.502    -0.018     40.28
   Mg(SO4)2-2      2.514e-11   2.148e-11   -10.600   -10.668    -0.068     34.32
   CaHSO4+         8.703e-13   8.356e-13   -12.060   -12.078    -0.018     (0)  
   Na2SO4          5.406e-15   5.407e-15   -14.267   -14.267     0.000     47.96
Si            4.100e-04
   H4SiO4          4.096e-04   4.098e-04    -3.388    -3.387     0.000     52.08
   H3SiO4-         3.971e-07   3.812e-07    -6.401    -6.419    -0.018     27.98
   H2SiO4-2        1.921e-13   1.636e-13   -12.717   -12.786    -0.070     (0)  

------------------------------Saturation indices-------------------------------

  Phase               SI** log IAP   log K(298 K,   1 atm)

  Anhydrite        -4.03     -8.35   -4.31  CaSO4
  Aragonite        -1.92    -10.25   -8.34  CaCO3
  Arcanite        -11.64    -13.52   -1.88  K2SO4
  Calcite          -1.80    -10.25   -8.45  CaCO3
  Chalcedony        0.16     -3.39   -3.55  SiO2
  Chrysotile      -10.85     21.35   32.20  Mg3Si2O5(OH)4
  CO2(g)           -2.05     -3.51   -1.47  CO2
  Dolomite         -3.99    -21.07  -17.08  CaMg(CO3)2
  Epsomite         -7.18     -8.91   -1.74  MgSO4:7H2O
  Gypsum           -3.80     -8.35   -4.55  CaSO4:2H2O
  H2(g)           -21.65    -24.75   -3.10  H2
  H2O(g)           -1.50     -0.00    1.50  H2O
  Halite           -9.72     -8.15    1.57  NaCl
  Hexahydrite      -7.35     -8.91   -1.57  MgSO4:6H2O
  Kieserite        -7.75     -8.91   -1.16  MgSO4:H2O
  Mirabilite      -11.19    -11.90   -0.71  Na2SO4:10H2O
  O2(g)           -39.97    -42.86   -2.89  O2
  Quartz            0.59     -3.39   -3.98  SiO2
  Sepiolite        -7.17      8.59   15.76  Mg2Si3O7.5OH:3H2O
  Sepiolite(d)    -10.07      8.59   18.66  Mg2Si3O7.5OH:3H2O
  SiO2(a)          -0.68     -3.39   -2.71  SiO2
  Sylvite          -9.86     -8.96    0.90  KCl
  Talc             -6.82     14.58   21.40  Mg3Si4O10(OH)2
  Thenardite      -12.55    -11.90    0.65  Na2SO4

**For a gas, SI = log10(fugacity). Fugacity = pressure * phi / 1 atm.
  For ideal gases, phi = 1.

------------------
End of simulation.
------------------

------------------------------------
Reading input data for simulation 2.
------------------------------------

	SELECTED_OUTPUT 101
			active false	
	INVERSE_MODELING 1
		solutions 1 2
		uncertainty 0.05
		phases
			Halite
			Gypsum
			Kaolinite   	pre
			Ca-montmorillonite   pre
			CO2(g)
			Calcite
			Chalcedony	pre
			Biotite    	dis
			Plagioclase     dis
	PHASES
		Halite
		NaCl = Na+ + Cl-
		log_k	0.0
		Biotite
		KMg3AlSi3O10(OH)2 + 6H+ + 4H2O = K+ + 3Mg+2 + Al(OH)4- + 3H4SiO4 
		log_k	0.0
		Plagioclase
		Na0.62Ca0.37Al1.38Si2.625O8 + 5.5 H+ + 2.5H2O = 0.62Na+ + 0.37Ca+2 + 1.38Al+3 + 2.625H4SiO4
		log_k	0.0
		H2O(g)
		H2O = H2O
		log_k	0.0
		NaX
		NaX = Na+ + X- 
		log_k	0.0
		CaX2
		CaX2 = Ca+2 + 2X- 
		log_k	0.0
	END
---------------------------------------------
Beginning of inverse modeling 1 calculations.
---------------------------------------------

Using Cl1 standard precision optimization routine.

Solution 1: 

                         Input          Delta    Input+Delta
             pH      6.200e+00  +   0.000e+00  =   6.200e+00
             Al      0.000e+00  +   0.000e+00  =   0.000e+00
     Alkalinity      3.280e-04  +   1.400e-05  =   3.420e-04
          C(-4)      0.000e+00  +   0.000e+00  =   0.000e+00
           C(4)      7.829e-04  +   0.000e+00  =   7.829e-04
             Ca      7.800e-05  +   0.000e+00  =   7.800e-05
             Cl      1.400e-05  +   0.000e+00  =   1.400e-05
           H(0)      0.000e+00  +   0.000e+00  =   0.000e+00
              K      2.800e-05  +   0.000e+00  =   2.800e-05
             Mg      2.900e-05  +   0.000e+00  =   2.900e-05
             Na      1.340e-04  +   0.000e+00  =   1.340e-04
           O(0)      0.000e+00  +   0.000e+00  =   0.000e+00
          S(-2)      0.000e+00  +   0.000e+00  =   0.000e+00
           S(6)      1.000e-05  +   0.000e+00  =   1.000e-05
             Si      2.730e-04  +   0.000e+00  =   2.730e-04

Solution 2: 

                         Input          Delta    Input+Delta
             pH      6.800e+00  +   0.000e+00  =   6.800e+00
             Al      0.000e+00  +   0.000e+00  =   0.000e+00
     Alkalinity      8.951e-04  +  -1.200e-05  =   8.831e-04
          C(-4)      0.000e+00  +   0.000e+00  =   0.000e+00
           C(4)      1.200e-03  +   0.000e+00  =   1.200e-03
             Ca      2.600e-04  +   0.000e+00  =   2.600e-04
             Cl      3.000e-05  +   0.000e+00  =   3.000e-05
           H(0)      0.000e+00  +   0.000e+00  =   0.000e+00
              K      4.000e-05  +   1.999e-06  =   4.200e-05
             Mg      7.101e-05  +   0.000e+00  =   7.101e-05
             Na      2.590e-04  +   0.000e+00  =   2.590e-04
           O(0)      0.000e+00  +   0.000e+00  =   0.000e+00
          S(-2)      0.000e+00  +   0.000e+00  =   0.000e+00
           S(6)      2.500e-05  +   0.000e+00  =   2.500e-05
             Si      4.100e-04  +   0.000e+00  =   4.100e-04

Solution fractions:                   Minimum        Maximum
   Solution   1      1.000e+00      0.000e+00      0.000e+00
   Solution   2      1.000e+00      0.000e+00      0.000e+00

Phase mole transfers:                 Minimum        Maximum   Formula             (Approximate SI in solution 1, 2 at 298 K,   1 atm)
         Halite      1.600e-05      0.000e+00      0.000e+00   NaCl                       ( -8.75, -8.15)
         Gypsum      1.500e-05      0.000e+00      0.000e+00   CaSO4:2H2O                 ( -4.65, -3.80)
      Kaolinite     -3.279e-05      0.000e+00      0.000e+00   Al2Si2O5(OH)4              (      ,      )
Ca-Montmorillon     -8.201e-05      0.000e+00      0.000e+00   Ca0.165Al2.33Si3.67O10(OH  (      ,      )
         CO2(g)      3.017e-04      0.000e+00      0.000e+00   CO2                        ( -1.87, -2.05)
        Calcite      1.155e-04      0.000e+00      0.000e+00   CaCO3                      ( -3.33, -1.80)
        Biotite      1.400e-05      0.000e+00      0.000e+00   KMg3AlSi3O10(OH)2          (      ,      )
    Plagioclase      1.758e-04      0.000e+00      0.000e+00   Na0.62Ca0.37Al1.38Si2.625  (      ,      )

Redox mole transfers:    

Sum of residuals (epsilons in documentation):         2.121e+00
Sum of delta/uncertainty limit:                       2.121e+00
Maximum fractional error in element concentration:    4.998e-02
===============================================================================


Solution 1: 

                         Input          Delta    Input+Delta
             pH      6.200e+00  +   0.000e+00  =   6.200e+00
             Al      0.000e+00  +   0.000e+00  =   0.000e+00
     Alkalinity      3.280e-04  +   1.400e-05  =   3.420e-04
          C(-4)      0.000e+00  +   0.000e+00  =   0.000e+00
           C(4)      7.829e-04  +   0.000e+00  =   7.829e-04
             Ca      7.800e-05  +   0.000e+00  =   7.800e-05
             Cl      1.400e-05  +   0.000e+00  =   1.400e-05
           H(0)      0.000e+00  +   0.000e+00  =   0.000e+00
              K      2.800e-05  +   0.000e+00  =   2.800e-05
             Mg      2.900e-05  +   0.000e+00  =   2.900e-05
             Na      1.340e-04  +   0.000e+00  =   1.340e-04
           O(0)      0.000e+00  +   0.000e+00  =   0.000e+00
          S(-2)      0.000e+00  +   0.000e+00  =   0.000e+00
           S(6)      1.000e-05  +   0.000e+00  =   1.000e-05
             Si      2.730e-04  +   1.365e-05  =   2.867e-04

Solution 2: 

                         Input          Delta    Input+Delta
             pH      6.800e+00  +   0.000e+00  =   6.800e+00
             Al      0.000e+00  +   0.000e+00  =   0.000e+00
     Alkalinity      8.951e-04  +  -7.113e-06  =   8.880e-04
          C(-4)      0.000e+00  +   0.000e+00  =   0.000e+00
           C(4)      1.200e-03  +   0.000e+00  =   1.200e-03
             Ca      2.600e-04  +   0.000e+00  =   2.600e-04
             Cl      3.000e-05  +   0.000e+00  =   3.000e-05
           H(0)      0.000e+00  +   0.000e+00  =   0.000e+00
              K      4.000e-05  +   1.999e-06  =   4.200e-05
             Mg      7.101e-05  +   0.000e+00  =   7.101e-05
             Na      2.590e-04  +   4.889e-06  =   2.639e-04
           O(0)      0.000e+00  +   0.000e+00  =   0.000e+00
          S(-2)      0.000e+00  +   0.000e+00  =   0.000e+00
           S(6)      2.500e-05  +   0.000e+00  =   2.500e-05
             Si      4.100e-04  +  -2.050e-05  =   3.895e-04

Solution fractions:                   Minimum        Maximum
   Solution   1      1.000e+00      0.000e+00      0.000e+00
   Solution   2      1.000e+00      0.000e+00      0.000e+00

Phase mole transfers:                 Minimum        Maximum   Formula             (Approximate SI in solution 1, 2 at 298 K,   1 atm)
         Halite      1.600e-05      0.000e+00      0.000e+00   NaCl                       ( -8.75, -8.15)
         Gypsum      1.500e-05      0.000e+00      0.000e+00   CaSO4:2H2O                 ( -4.65, -3.80)
Ca-Montmorillon     -1.148e-04      0.000e+00      0.000e+00   Ca0.165Al2.33Si3.67O10(OH  (      ,      )
         CO2(g)      2.992e-04      0.000e+00      0.000e+00   CO2                        ( -1.87, -2.05)
        Calcite      1.180e-04      0.000e+00      0.000e+00   CaCO3                      ( -3.33, -1.80)
        Biotite      1.400e-05      0.000e+00      0.000e+00   KMg3AlSi3O10(OH)2          (      ,      )
    Plagioclase      1.837e-04      0.000e+00      0.000e+00   Na0.62Ca0.37Al1.38Si2.625  (      ,      )

Redox mole transfers:    

Sum of residuals (epsilons in documentation):         4.390e+00
Sum of delta/uncertainty limit:                       4.390e+00
Maximum fractional error in element concentration:    5.000e-02

Model contains minimum number of phases.
===============================================================================


Solution 1: 

                         Input          Delta    Input+Delta
             pH      6.200e+00  +   0.000e+00  =   6.200e+00
             Al      0.000e+00  +   0.000e+00  =   0.000e+00
     Alkalinity      3.280e-04  +   1.400e-05  =   3.420e-04
          C(-4)      0.000e+00  +   0.000e+00  =   0.000e+00
           C(4)      7.829e-04  +   0.000e+00  =   7.829e-04
             Ca      7.800e-05  +   0.000e+00  =   7.800e-05
             Cl      1.400e-05  +   0.000e+00  =   1.400e-05
           H(0)      0.000e+00  +   0.000e+00  =   0.000e+00
              K      2.800e-05  +   0.000e+00  =   2.800e-05
             Mg      2.900e-05  +   0.000e+00  =   2.900e-05
             Na      1.340e-04  +   0.000e+00  =   1.340e-04
           O(0)      0.000e+00  +   0.000e+00  =   0.000e+00
          S(-2)      0.000e+00  +   0.000e+00  =   0.000e+00
           S(6)      1.000e-05  +   0.000e+00  =   1.000e-05
             Si      2.730e-04  +   0.000e+00  =   2.730e-04

Solution 2: 

                         Input          Delta    Input+Delta
             pH      6.800e+00  +   0.000e+00  =   6.800e+00
             Al      0.000e+00  +   0.000e+00  =   0.000e+00
     Alkalinity      8.951e-04  +  -1.200e-05  =   8.831e-04
          C(-4)      0.000e+00  +   0.000e+00  =   0.000e+00
           C(4)      1.200e-03  +   0.000e+00  =   1.200e-03
             Ca      2.600e-04  +   0.000e+00  =   2.600e-04
             Cl      3.000e-05  +   0.000e+00  =   3.000e-05
           H(0)      0.000e+00  +   0.000e+00  =   0.000e+00
              K      4.000e-05  +   1.999e-06  =   4.200e-05
             Mg      7.101e-05  +   0.000e+00  =   7.101e-05
             Na      2.590e-04  +   0.000e+00  =   2.590e-04
           O(0)      0.000e+00  +   0.000e+00  =   0.000e+00
          S(-2)      0.000e+00  +   0.000e+00  =   0.000e+00
           S(6)      2.500e-05  +   0.000e+00  =   2.500e-05
             Si      4.100e-04  +   0.000e+00  =   4.100e-04

Solution fractions:                   Minimum        Maximum
   Solution   1      1.000e+00      0.000e+00      0.000e+00
   Solution   2      1.000e+00      0.000e+00      0.000e+00

Phase mole transfers:                 Minimum        Maximum   Formula             (Approximate SI in solution 1, 2 at 298 K,   1 atm)
         Halite      1.600e-05      0.000e+00      0.000e+00   NaCl                       ( -8.75, -8.15)
         Gypsum      1.500e-05      0.000e+00      0.000e+00   CaSO4:2H2O                 ( -4.65, -3.80)
      Kaolinite     -1.283e-04      0.000e+00      0.000e+00   Al2Si2O5(OH)4              (      ,      )
         CO2(g)      3.152e-04      0.000e+00      0.000e+00   CO2                        ( -1.87, -2.05)
        Calcite      1.020e-04      0.000e+00      0.000e+00   CaCO3                      ( -3.33, -1.80)
     Chalcedony     -1.099e-04      0.000e+00      0.000e+00   SiO2                       ( -0.01,  0.16)
        Biotite      1.400e-05      0.000e+00      0.000e+00   KMg3AlSi3O10(OH)2          (      ,      )
    Plagioclase      1.758e-04      0.000e+00      0.000e+00   Na0.62Ca0.37Al1.38Si2.625  (      ,      )

Redox mole transfers:    

Sum of residuals (epsilons in documentation):         2.121e+00
Sum of delta/uncertainty limit:                       2.121e+00
Maximum fractional error in element concentration:    4.998e-02

Model contains minimum number of phases.
===============================================================================


Summary of inverse modeling:

	Number of models found: 3
	Number of minimal models found: 2
	Number of infeasible sets of phases saved: 19
	Number of calls to cl1: 28
------------------
End of simulation.
------------------

------------------------------------
Reading input data for simulation 3.
------------------------------------

	SOLUTION 1 Inflow
		units   mmol/kgw
		pH 	8.1
		Ca	1.698
		Mg	1.730
		Na	9.449
		K	0.435
		Cl	9.234
		S(6)	0.698
		C(4)	6.021
		Si	0.5
	SOLUTION 2 Lake
		pH	7.5
		Ca	11.216
		Mg	491.925
		Na	5428.616
		K	166.479
		Cl	5834.640 
		S(6)	291.427
		C(4)	6.304
		Si	0.5
	INVERSE_MODELING 1
		solutions 1 2
		uncertainty 0.05
		tolerance 1e-10
		balances
			Alkalinity 0.05
		phases
			Halite		p
			Aragonite	p
			CO2(g)		p
			Mirabilite	p
			H2O(g)
			Anorthite
			Albite
			Chalcedony
			Montmorillonite-Aberdeen
			Montmorillonite-BelleFourche	
			Kaolinite   	pre
			Sepiolite	
	PHASES
		Halite
		NaCl = Na+ + Cl-
		log_k	0.0
		Biotite
		KMg3AlSi3O10(OH)2 + 6H+ + 4H2O = K+ + 3Mg+2 + Al(OH)4- + 3H4SiO4 
		log_k	0.0
		Plagioclase
		Na0.62Ca0.37Al1.38Si2.625O8 + 5.5 H+ + 2.5H2O = 0.62Na+ + 0.37Ca+2 + 1.38Al+3 + 2.625H4SiO4
		log_k	0.0
		H2O(g)
		H2O = H2O
		log_k	0.0
		Brucite             19
		Mg(OH)2 + 2H+ = Mg+2 + 2H2O 
		log_k	16.84
		delta_h	-27.1 kcal
		Sylvite
		KCl = K+ + Cl-
		log_k	0.0
		NaX
		NaX = Na+ + X- 
		log_k	0.0
		CaX2
		CaX2 = Ca+2 + 2X- 
		log_k	0.0
		Mirabilite
		Na2SO4:10H2O = 2Na+ + SO4-2 + 10H2O
		log_k	0.0
		Montmorillonite-Aberdeen        116
		(HNaK)0.14Mg0.45Fe0.33Al1.47Si3.82O10(OH)2 + 9.16H2O + 0.84H+ = 0.14H+ + 0.14Na+ + 0.14K+ + 0.45Mg+2 + 0.33Fe+3 + 1.47Al(OH)4- + 3.82H4SiO4
		log_k	-29.688	
		Montmorillonite-BelleFourche    115
		(HNaK)0.09Mg0.29Fe0.24Al1.57Si3.93O10(OH)2 + 10H2O = 0.09H+ + 0.09Na+ + 0.09K+ + 0.29Mg+2 + 0.24Fe+3 + 1.57Al(OH)4- + 3.93H4SiO4
		log_k	-34.913	
	END
-------------------------------------------
Beginning of initial solution calculations.
-------------------------------------------

Initial solution 1.	Inflow

-----------------------------Solution composition------------------------------

	Elements           Molality       Moles

	C(4)              6.021e-03   6.021e-03
	Ca                1.698e-03   1.698e-03
	Cl                9.234e-03   9.234e-03
	K                 4.350e-04   4.350e-04
	Mg                1.730e-03   1.730e-03
	Na                9.449e-03   9.449e-03
	S(6)              6.980e-04   6.980e-04
	Si                5.000e-04   5.000e-04

----------------------------Description of solution----------------------------

                                       pH  =   8.100    
                                       pe  =   4.000    
      Specific Conductance (µS/cm,  25°C)  = 1730
                          Density (g/cm³)  =   0.99792
                               Volume (L)  =   1.00324
                        Viscosity (mPa s)  =   0.89363
                        Activity of water  =   0.999
                 Ionic strength (mol/kgw)  =   1.999e-02
                       Mass of water (kg)  =   1.000e+00
                 Total alkalinity (eq/kg)  =   6.067e-03
                       Total CO2 (mol/kg)  =   6.021e-03
                         Temperature (°C)  =  25.00
                  Electrical balance (eq)  =   4.255e-05
 Percent error, 100*(Cat-|An|)/(Cat+|An|)  =   0.13
                               Iterations  =   7
                                  Total H  = 1.110202e+02
                                  Total O  = 5.552898e+01

----------------------------Distribution of species----------------------------

                                               Log       Log       Log    mole V
   Species          Molality    Activity  Molality  Activity     Gamma   cm³/mol

   OH-             1.469e-06   1.274e-06    -5.833    -5.895    -0.062     -3.98
   H+              8.930e-09   7.943e-09    -8.049    -8.100    -0.051      0.00
   H2O             5.551e+01   9.995e-01     1.744    -0.000     0.000     18.07
C(4)          6.021e-03
   HCO3-           5.725e-03   5.015e-03    -2.242    -2.300    -0.057     24.81
   CO2             8.933e-05   8.960e-05    -4.049    -4.048     0.001     34.79
   MgHCO3+         6.274e-05   5.454e-05    -4.202    -4.263    -0.061      5.56
   CO3-2           5.035e-05   2.961e-05    -4.298    -4.529    -0.231     -4.15
   CaCO3           4.682e-05   4.704e-05    -4.330    -4.328     0.002    -14.60
   MgCO3           2.614e-05   2.626e-05    -4.583    -4.581     0.002    -17.09
   NaHCO3          2.020e-05   2.034e-05    -4.695    -4.692     0.003     17.66
   KHCO3           8.358e-07   8.396e-07    -6.078    -6.076     0.002     21.42
   CaHCO3+         4.735e-10   4.158e-10    -9.325    -9.381    -0.056      9.75
   (CO2)2          1.301e-10   1.305e-10    -9.886    -9.884     0.001     68.75
Ca            1.698e-03
   Ca+2            1.609e-03   9.457e-04    -2.793    -3.024    -0.231    -17.81
   CaCO3           4.682e-05   4.704e-05    -4.330    -4.328     0.002    -14.60
   CaSO4           4.214e-05   4.223e-05    -4.375    -4.374     0.001      7.22
   CaOH+           2.268e-08   1.975e-08    -7.644    -7.704    -0.060     (0)  
   CaHCO3+         4.735e-10   4.158e-10    -9.325    -9.381    -0.056      9.75
   CaHSO4+         3.228e-12   2.811e-12   -11.491   -11.551    -0.060     (0)  
Cl            9.234e-03
   Cl-             9.234e-03   8.017e-03    -2.035    -2.096    -0.061     18.18
   HCl             2.151e-11   2.194e-11   -10.667   -10.659     0.009     20.36
H(0)          8.891e-28
   H2              4.445e-28   4.467e-28   -27.352   -27.350     0.002     14.99
K             4.350e-04
   K+              4.321e-04   3.748e-04    -3.364    -3.426    -0.062      9.10
   KSO4-           2.067e-06   1.826e-06    -5.685    -5.739    -0.054     21.83
   KHCO3           8.358e-07   8.396e-07    -6.078    -6.076     0.002     21.42
Mg            1.730e-03
   Mg+2            1.563e-03   9.295e-04    -2.806    -3.032    -0.226    -21.50
   MgSO4           7.720e-05   7.791e-05    -4.112    -4.108     0.004     -0.40
   MgHCO3+         6.274e-05   5.454e-05    -4.202    -4.263    -0.061      5.56
   MgCO3           2.614e-05   2.626e-05    -4.583    -4.581     0.002    -17.09
   MgOH+           4.824e-07   4.247e-07    -6.317    -6.372    -0.055     (0)  
   Mg(SO4)2-2      1.353e-07   8.215e-08    -6.869    -7.085    -0.217     39.36
Na            9.449e-03
   Na+             9.402e-03   8.208e-03    -2.027    -2.086    -0.059     -1.32
   NaSO4-          2.650e-05   2.308e-05    -4.577    -4.637    -0.060     17.24
   NaHCO3          2.020e-05   2.034e-05    -4.695    -4.692     0.003     17.66
   Na2SO4          9.201e-11   9.238e-11   -10.036   -10.034     0.002     47.96
O(0)          4.325e-38
   O2              2.163e-38   2.173e-38   -37.665   -37.663     0.002     30.40
S(6)          6.980e-04
   SO4-2           5.498e-04   3.201e-04    -3.260    -3.495    -0.235     14.77
   MgSO4           7.720e-05   7.791e-05    -4.112    -4.108     0.004     -0.40
   CaSO4           4.214e-05   4.223e-05    -4.375    -4.374     0.001      7.22
   NaSO4-          2.650e-05   2.308e-05    -4.577    -4.637    -0.060     17.24
   KSO4-           2.067e-06   1.826e-06    -5.685    -5.739    -0.054     21.83
   Mg(SO4)2-2      1.353e-07   8.215e-08    -6.869    -7.085    -0.217     39.36
   HSO4-           2.839e-10   2.472e-10    -9.547    -9.607    -0.060     40.38
   Na2SO4          9.201e-11   9.238e-11   -10.036   -10.034     0.002     47.96
   CaHSO4+         3.228e-12   2.811e-12   -11.491   -11.551    -0.060     (0)  
Si            5.000e-04
   H4SiO4          4.895e-04   4.918e-04    -3.310    -3.308     0.002     52.08
   H3SiO4-         1.050e-05   9.128e-06    -4.979    -5.040    -0.061     28.08
   H2SiO4-2        1.329e-10   7.817e-11    -9.876   -10.107    -0.231     (0)  

------------------------------Saturation indices-------------------------------

  Phase               SI** log IAP   log K(298 K,   1 atm)

  Anhydrite        -2.20     -6.52   -4.31  CaSO4
  Aragonite         0.78     -7.55   -8.34  CaCO3
  Arcanite         -8.47    -10.35   -1.88  K2SO4
  Brucite          -3.67     13.17   16.84  Mg(OH)2
  Calcite           0.90     -7.55   -8.45  CaCO3
  Chalcedony        0.24     -3.31   -3.55  SiO2
  Chrysotile        0.69     32.89   32.20  Mg3Si2O5(OH)4
  CO2(g)           -2.58     -4.05   -1.47  CO2
  Dolomite          1.97    -15.11  -17.08  CaMg(CO3)2
  Epsomite         -4.79     -6.53   -1.74  MgSO4:7H2O
  Gypsum           -1.97     -6.52   -4.55  CaSO4:2H2O
  H2(g)           -24.25    -27.35   -3.10  H2
  H2O(g)           -0.00     -0.00    0.00  H2O
  Halite           -4.18     -4.18    0.00  NaCl
  Hexahydrite      -4.96     -6.53   -1.57  MgSO4:6H2O
  Kieserite        -5.37     -6.53   -1.16  MgSO4:H2O
  Mirabilite       -7.67     -7.67    0.00  Na2SO4:10H2O
  O2(g)           -34.77    -37.66   -2.89  O2
  Quartz            0.67     -3.31   -3.98  SiO2
  Sepiolite         0.65     16.41   15.76  Mg2Si3O7.5OH:3H2O
  Sepiolite(d)     -2.25     16.41   18.66  Mg2Si3O7.5OH:3H2O
  SiO2(a)          -0.60     -3.31   -2.71  SiO2
  Sylvite          -5.52     -5.52    0.00  KCl
  Talc              4.87     26.27   21.40  Mg3Si4O10(OH)2
  Thenardite       -8.32     -7.67    0.65  Na2SO4

**For a gas, SI = log10(fugacity). Fugacity = pressure * phi / 1 atm.
  For ideal gases, phi = 1.

Initial solution 2.	Lake

-----------------------------Solution composition------------------------------

	Elements           Molality       Moles

	C(4)              6.304e-03   6.304e-03
	Ca                1.122e-02   1.122e-02
	Cl                5.835e+00   5.835e+00
	K                 1.665e-01   1.665e-01
	Mg                4.919e-01   4.919e-01
	Na                5.429e+00   5.429e+00
	S(6)              2.914e-01   2.914e-01
	Si                5.000e-04   5.000e-04

----------------------------Description of solution----------------------------

                                       pH  =   7.500    
                                       pe  =   4.000    
      Specific Conductance (µS/cm,  25°C)  = 216151
                          Density (g/cm³)  =   1.21896
                               Volume (L)  =   1.13130
                        Viscosity (mPa s)  =   2.17847
                        Activity of water  =   0.796
                 Ionic strength (mol/kgw)  =   6.750e+00
                       Mass of water (kg)  =   1.000e+00
                 Total alkalinity (eq/kg)  =   6.554e-03
                       Total CO2 (mol/kg)  =   6.304e-03
                         Temperature (°C)  =  25.00
                  Electrical balance (eq)  =   1.773e-01
 Percent error, 100*(Cat-|An|)/(Cat+|An|)  =   1.42
                               Iterations  =   9 (16 overall)
                                  Total H  = 1.110208e+02
                                  Total O  = 5.669299e+01

----------------------------Distribution of species----------------------------

                                               Log       Log       Log    mole V
   Species          Molality    Activity  Molality  Activity     Gamma   cm³/mol

   OH-             5.477e-07   2.548e-07    -6.261    -6.594    -0.332      5.67
   H+              4.494e-08   3.162e-08    -7.347    -7.500    -0.153      0.00
   H2O             5.551e+01   7.960e-01     1.744    -0.099     0.000     18.07
C(4)          6.304e-03
   MgHCO3+         5.764e-03   2.888e-03    -2.239    -2.539    -0.300      6.00
   HCO3-           3.485e-04   2.283e-04    -3.458    -3.641    -0.184     45.39
   NaHCO3          1.038e-04   1.085e-03    -3.984    -2.965     1.019     17.66
   MgCO3           7.382e-05   3.492e-04    -4.132    -3.457     0.675    -17.09
   CO2             7.312e-06   2.040e-05    -5.136    -4.690     0.445     34.79
   CO3-2           2.984e-06   3.386e-07    -5.525    -6.470    -0.945      9.17
   KHCO3           2.102e-06   9.946e-06    -5.677    -5.002     0.675     21.42
   CaCO3           1.320e-06   6.246e-06    -5.879    -5.204     0.675    -14.60
   CaHCO3+         3.619e-10   2.198e-10    -9.441    -9.658    -0.216     10.08
   (CO2)2          2.424e-12   6.762e-12   -11.615   -11.170     0.445     68.75
Ca            1.122e-02
   Ca+2            8.574e-03   1.098e-02    -2.067    -1.959     0.107    -13.99
   CaSO4           2.641e-03   5.274e-03    -2.578    -2.278     0.300      7.22
   CaCO3           1.320e-06   6.246e-06    -5.879    -5.204     0.675    -14.60
   CaOH+           9.932e-09   4.587e-08    -8.003    -7.338     0.664     (0)  
   CaHCO3+         3.619e-10   2.198e-10    -9.441    -9.658    -0.216     10.08
   CaHSO4+         3.026e-10   1.397e-09    -9.519    -8.855     0.664     (0)  
Cl            5.835e+00
   Cl-             5.835e+00   3.609e+00     0.766     0.557    -0.209     20.20
   HCl             5.271e-11   3.932e-08   -10.278    -7.405     2.873     20.36
H(0)          2.769e-27
   H2              1.384e-27   7.079e-27   -26.859   -26.150     0.709     14.99
K             1.665e-01
   K+              1.660e-01   9.751e-02    -0.780    -1.011    -0.231     12.45
   KSO4-           4.594e-04   5.109e-03    -3.338    -2.292     1.046     58.98
   KHCO3           2.102e-06   9.946e-06    -5.677    -5.002     0.675     21.42
Mg            4.919e-01
   Mg+2            4.118e-01   1.081e+00    -0.385     0.034     0.419    -17.45
   MgSO4           4.353e-02   9.744e-01    -1.361    -0.011     1.350     -0.40
   Mg(SO4)2-2      3.063e-02   1.105e-02    -1.514    -1.957    -0.443     56.66
   MgHCO3+         5.764e-03   2.888e-03    -2.239    -2.539    -0.300      6.00
   MgOH+           1.574e-04   9.877e-05    -3.803    -4.005    -0.202     (0)  
   MgCO3           7.382e-05   3.492e-04    -4.132    -3.457     0.675    -17.09
Na            5.429e+00
   Na+             5.310e+00   9.614e+00     0.725     0.983     0.258      1.41
   NaSO4-          1.181e-01   2.908e-01    -0.928    -0.536     0.391     34.87
   Na2SO4          3.445e-04   1.363e-03    -3.463    -2.865     0.597     47.96
   NaHCO3          1.038e-04   1.085e-03    -3.984    -2.965     1.019     17.66
O(0)          0.000e+00
   O2              0.000e+00   0.000e+00   -40.936   -40.261     0.675     30.40
S(6)          2.914e-01
   NaSO4-          1.181e-01   2.908e-01    -0.928    -0.536     0.391     34.87
   SO4-2           6.505e-02   3.443e-03    -1.187    -2.463    -1.276     34.06
   MgSO4           4.353e-02   9.744e-01    -1.361    -0.011     1.350     -0.40
   Mg(SO4)2-2      3.063e-02   1.105e-02    -1.514    -1.957    -0.443     56.66
   CaSO4           2.641e-03   5.274e-03    -2.578    -2.278     0.300      7.22
   KSO4-           4.594e-04   5.109e-03    -3.338    -2.292     1.046     58.98
   Na2SO4          3.445e-04   1.363e-03    -3.463    -2.865     0.597     47.96
   HSO4-           2.292e-09   1.059e-08    -8.640    -7.975     0.664     42.12
   CaHSO4+         3.026e-10   1.397e-09    -9.519    -8.855     0.664     (0)  
Si            5.000e-04
   H4SiO4          4.789e-04   2.266e-03    -3.320    -2.645     0.675     52.08
   H3SiO4-         2.109e-05   1.056e-05    -4.676    -4.976    -0.300     30.40
   H2SiO4-2        2.002e-10   2.273e-11    -9.698   -10.643    -0.945     (0)  

------------------------------Saturation indices-------------------------------

  Phase               SI** log IAP   log K(298 K,   1 atm)

  Anhydrite        -0.11     -4.42   -4.31  CaSO4
  Aragonite        -0.09     -8.43   -8.34  CaCO3
  Arcanite         -2.61     -4.48   -1.88  K2SO4
  Brucite          -2.00     14.84   16.84  Mg(OH)2
  Calcite           0.02     -8.43   -8.45  CaCO3
  Chalcedony        1.10     -2.45   -3.55  SiO2
  Chrysotile        7.51     39.71   32.20  Mg3Si2O5(OH)4
  CO2(g)           -3.22     -4.69   -1.47  CO2
  Dolomite          2.22    -14.87  -17.08  CaMg(CO3)2
  Epsomite         -1.38     -3.12   -1.74  MgSO4:7H2O
  Gypsum           -0.07     -4.62   -4.55  CaSO4:2H2O
  H2(g)           -23.05    -26.15   -3.10  H2
  H2O(g)           -0.10     -0.10    0.00  H2O
  Halite            1.54      1.54    0.00  NaCl
  Hexahydrite      -1.46     -3.02   -1.57  MgSO4:6H2O
  Kieserite        -1.37     -2.53   -1.16  MgSO4:H2O
  Mirabilite       -1.49     -1.49    0.00  Na2SO4:10H2O
  O2(g)           -37.37    -40.26   -2.89  O2
  Quartz            1.53     -2.45   -3.98  SiO2
  Sepiolite         6.42     22.18   15.76  Mg2Si3O7.5OH:3H2O
  Sepiolite(d)      3.52     22.18   18.66  Mg2Si3O7.5OH:3H2O
  SiO2(a)           0.27     -2.45   -2.71  SiO2
  Sylvite          -0.45     -0.45    0.00  KCl
  Talc             13.52     34.92   21.40  Mg3Si4O10(OH)2
  Thenardite       -1.15     -0.50    0.65  Na2SO4

**For a gas, SI = log10(fugacity). Fugacity = pressure * phi / 1 atm.
  For ideal gases, phi = 1.

---------------------------------------------
Beginning of inverse modeling 1 calculations.
---------------------------------------------

Using Cl1 standard precision optimization routine.

Solution 1: Inflow

                         Input          Delta    Input+Delta
             pH      8.100e+00  +   0.000e+00  =   8.100e+00
             Al      0.000e+00  +   0.000e+00  =   0.000e+00
     Alkalinity      6.067e-03  +   0.000e+00  =   6.067e-03
          C(-4)      0.000e+00  +   0.000e+00  =   0.000e+00
           C(4)      6.021e-03  +   0.000e+00  =   6.021e-03
             Ca      1.698e-03  +   0.000e+00  =   1.698e-03
             Cl      9.234e-03  +   0.000e+00  =   9.234e-03
          Fe(2)      0.000e+00  +   0.000e+00  =   0.000e+00
          Fe(3)      0.000e+00  +   0.000e+00  =   0.000e+00
           H(0)      0.000e+00  +   0.000e+00  =   0.000e+00
              K      4.350e-04  +   0.000e+00  =   4.350e-04
             Mg      1.730e-03  +   0.000e+00  =   1.730e-03
             Na      9.449e-03  +  -4.255e-05  =   9.406e-03
           O(0)      0.000e+00  +   0.000e+00  =   0.000e+00
          S(-2)      0.000e+00  +   0.000e+00  =   0.000e+00
           S(6)      6.980e-04  +   0.000e+00  =   6.980e-04
             Si      5.000e-04  +   0.000e+00  =   5.000e-04

Solution 2: Lake

                         Input          Delta    Input+Delta
             pH      7.500e+00  +   0.000e+00  =   7.500e+00
             Al      0.000e+00  +   0.000e+00  =   0.000e+00
     Alkalinity      6.554e-03  +   0.000e+00  =   6.554e-03
          C(-4)      0.000e+00  +   0.000e+00  =   0.000e+00
           C(4)      6.304e-03  +   0.000e+00  =   6.304e-03
             Ca      1.122e-02  +   0.000e+00  =   1.122e-02
             Cl      5.835e+00  +  -9.410e-02  =   5.741e+00
          Fe(2)      0.000e+00  +   0.000e+00  =   0.000e+00
          Fe(3)      0.000e+00  +   0.000e+00  =   0.000e+00
           H(0)      0.000e+00  +   0.000e+00  =   0.000e+00
              K      1.665e-01  +   0.000e+00  =   1.665e-01
             Mg      4.919e-01  +   0.000e+00  =   4.919e-01
             Na      5.429e+00  +  -2.714e-01  =   5.157e+00
           O(0)      0.000e+00  +   0.000e+00  =   0.000e+00
          S(-2)      0.000e+00  +   0.000e+00  =   0.000e+00
           S(6)      2.914e-01  +   0.000e+00  =   2.914e-01
             Si      5.000e-04  +   0.000e+00  =   5.000e-04

Solution fractions:                   Minimum        Maximum
   Solution   1      6.217e+02      0.000e+00      0.000e+00
   Solution   2      1.000e+00      0.000e+00      0.000e+00

Phase mole transfers:                 Minimum        Maximum   Formula             (Approximate SI in solution 1, 2 at 298 K,   1 atm)
      Aragonite     -3.737e+00      0.000e+00      0.000e+00   CaCO3                      (  0.78, -0.09)
     Mirabilite     -1.425e-01      0.000e+00      0.000e+00   Na2SO4:10H2O               ( -7.67, -1.49)
         H2O(g)     -3.444e+04      0.000e+00      0.000e+00   H2O                        ( -0.00, -0.10)
      Anorthite      2.692e+00      0.000e+00      0.000e+00   CaAl2Si2O8                 (      ,      )
         Albite     -3.016e-01      0.000e+00      0.000e+00   NaAlSi3O8                  (      ,      )
     Chalcedony     -5.049e+00      0.000e+00      0.000e+00   SiO2                       (  0.24,  1.10)
Montmorillonite     -6.397e+00      0.000e+00      0.000e+00   (HNaK)0.14Mg0.45Fe0.33Al1  (      ,      )
Montmorillonite      8.796e+00      0.000e+00      0.000e+00   (HNaK)0.09Mg0.29Fe0.24Al1  (      ,      )
      Kaolinite     -4.745e+00      0.000e+00      0.000e+00   Al2Si2O5(OH)4              (      ,      )
      Sepiolite     -1.279e-01      0.000e+00      0.000e+00   Mg2Si3O7.5OH:3H2O          (  0.65,  6.42)

Redox mole transfers:    

Sum of residuals (epsilons in documentation):         5.732e+01
Sum of delta/uncertainty limit:                       1.413e+00
Maximum fractional error in element concentration:    5.000e-02
===============================================================================


Solution 1: Inflow

                         Input          Delta    Input+Delta
             pH      8.100e+00  +   0.000e+00  =   8.100e+00
             Al      0.000e+00  +   0.000e+00  =   0.000e+00
     Alkalinity      6.067e-03  +  -2.487e-04  =   5.819e-03
          C(-4)      0.000e+00  +   0.000e+00  =   0.000e+00
           C(4)      6.021e-03  +   0.000e+00  =   6.021e-03
             Ca      1.698e-03  +   0.000e+00  =   1.698e-03
             Cl      9.234e-03  +   0.000e+00  =   9.234e-03
          Fe(2)      0.000e+00  +   0.000e+00  =   0.000e+00
          Fe(3)      0.000e+00  +   0.000e+00  =   0.000e+00
           H(0)      0.000e+00  +   0.000e+00  =   0.000e+00
              K      4.350e-04  +   0.000e+00  =   4.350e-04
             Mg      1.730e-03  +   0.000e+00  =   1.730e-03
             Na      9.449e-03  +  -2.913e-04  =   9.158e-03
           O(0)      0.000e+00  +   0.000e+00  =   0.000e+00
          S(-2)      0.000e+00  +   0.000e+00  =   0.000e+00
           S(6)      6.980e-04  +   0.000e+00  =   6.980e-04
             Si      5.000e-04  +   0.000e+00  =   5.000e-04

Solution 2: Lake

                         Input          Delta    Input+Delta
             pH      7.500e+00  +   0.000e+00  =   7.500e+00
             Al      0.000e+00  +   0.000e+00  =   0.000e+00
     Alkalinity      6.554e-03  +   3.277e-04  =   6.882e-03
          C(-4)      0.000e+00  +   0.000e+00  =   0.000e+00
           C(4)      6.304e-03  +   0.000e+00  =   6.304e-03
             Ca      1.122e-02  +  -5.608e-04  =   1.066e-02
             Cl      5.835e+00  +   2.917e-01  =   6.126e+00
          Fe(2)      0.000e+00  +   0.000e+00  =   0.000e+00
          Fe(3)      0.000e+00  +   0.000e+00  =   0.000e+00
           H(0)      0.000e+00  +   0.000e+00  =   0.000e+00
              K      1.665e-01  +  -8.324e-03  =   1.582e-01
             Mg      4.919e-01  +  -2.460e-02  =   4.673e-01
             Na      5.429e+00  +   1.734e-01  =   5.602e+00
           O(0)      0.000e+00  +   0.000e+00  =   0.000e+00
          S(-2)      0.000e+00  +   0.000e+00  =   0.000e+00
           S(6)      2.914e-01  +   0.000e+00  =   2.914e-01
             Si      5.000e-04  +   0.000e+00  =   5.000e-04

Solution fractions:                   Minimum        Maximum
   Solution   1      6.635e+02      0.000e+00      0.000e+00
   Solution   2      1.000e+00      0.000e+00      0.000e+00

Phase mole transfers:                 Minimum        Maximum   Formula             (Approximate SI in solution 1, 2 at 298 K,   1 atm)
      Aragonite     -3.988e+00      0.000e+00      0.000e+00   CaCO3                      (  0.78, -0.09)
     Mirabilite     -1.717e-01      0.000e+00      0.000e+00   Na2SO4:10H2O               ( -7.67, -1.49)
         H2O(g)     -3.676e+04      0.000e+00      0.000e+00   H2O                        ( -0.00, -0.10)
      Anorthite      2.872e+00      0.000e+00      0.000e+00   CaAl2Si2O8                 (      ,      )
     Chalcedony     -7.112e+00      0.000e+00      0.000e+00   SiO2                       (  0.24,  1.10)
Montmorillonite     -8.028e+00      0.000e+00      0.000e+00   (HNaK)0.14Mg0.45Fe0.33Al1  (      ,      )
Montmorillonite      1.104e+01      0.000e+00      0.000e+00   (HNaK)0.09Mg0.29Fe0.24Al1  (      ,      )
      Kaolinite     -5.637e+00      0.000e+00      0.000e+00   Al2Si2O5(OH)4              (      ,      )
      Sepiolite     -1.345e-01      0.000e+00      0.000e+00   Mg2Si3O7.5OH:3H2O          (  0.65,  6.42)

Redox mole transfers:    

Sum of residuals (epsilons in documentation):         9.586e+02
Sum of delta/uncertainty limit:                       7.075e+00
Maximum fractional error in element concentration:    5.000e-02

Model contains minimum number of phases.
===============================================================================


Solution 1: Inflow

                         Input          Delta    Input+Delta
             pH      8.100e+00  +   0.000e+00  =   8.100e+00
             Al      0.000e+00  +   0.000e+00  =   0.000e+00
     Alkalinity      6.067e-03  +   0.000e+00  =   6.067e-03
          C(-4)      0.000e+00  +   0.000e+00  =   0.000e+00
           C(4)      6.021e-03  +   0.000e+00  =   6.021e-03
             Ca      1.698e-03  +   0.000e+00  =   1.698e-03
             Cl      9.234e-03  +   0.000e+00  =   9.234e-03
          Fe(2)      0.000e+00  +   0.000e+00  =   0.000e+00
          Fe(3)      0.000e+00  +   0.000e+00  =   0.000e+00
           H(0)      0.000e+00  +   0.000e+00  =   0.000e+00
              K      4.350e-04  +   0.000e+00  =   4.350e-04
             Mg      1.730e-03  +   0.000e+00  =   1.730e-03
             Na      9.449e-03  +  -4.255e-05  =   9.406e-03
           O(0)      0.000e+00  +   0.000e+00  =   0.000e+00
          S(-2)      0.000e+00  +   0.000e+00  =   0.000e+00
           S(6)      6.980e-04  +   0.000e+00  =   6.980e-04
             Si      5.000e-04  +   0.000e+00  =   5.000e-04

Solution 2: Lake

                         Input          Delta    Input+Delta
             pH      7.500e+00  +   0.000e+00  =   7.500e+00
             Al      0.000e+00  +   0.000e+00  =   0.000e+00
     Alkalinity      6.554e-03  +   0.000e+00  =   6.554e-03
          C(-4)      0.000e+00  +   0.000e+00  =   0.000e+00
           C(4)      6.304e-03  +   0.000e+00  =   6.304e-03
             Ca      1.122e-02  +   0.000e+00  =   1.122e-02
             Cl      5.835e+00  +   1.281e-01  =   5.963e+00
          Fe(2)      0.000e+00  +   0.000e+00  =   0.000e+00
          Fe(3)      0.000e+00  +   0.000e+00  =   0.000e+00
           H(0)      0.000e+00  +   0.000e+00  =   0.000e+00
              K      1.665e-01  +   3.903e-13  =   1.665e-01
             Mg      4.919e-01  +  -2.460e-02  =   4.673e-01
             Na      5.429e+00  +   6.089e-13  =   5.429e+00
           O(0)      0.000e+00  +   0.000e+00  =   0.000e+00
          S(-2)      0.000e+00  +   0.000e+00  =   0.000e+00
           S(6)      2.914e-01  +   0.000e+00  =   2.914e-01
             Si      5.000e-04  +   0.000e+00  =   5.000e-04

Solution fractions:                   Minimum        Maximum
   Solution   1      7.739e+02      0.000e+00      0.000e+00
   Solution   2      1.000e+00      0.000e+00      0.000e+00

Phase mole transfers:                 Minimum        Maximum   Formula             (Approximate SI in solution 1, 2 at 298 K,   1 atm)
         Halite     -1.183e+00      0.000e+00      0.000e+00   NaCl                       ( -4.18,  1.54)
         CO2(g)     -4.653e+00      0.000e+00      0.000e+00   CO2                        ( -2.58, -3.22)
     Mirabilite     -2.487e-01      0.000e+00      0.000e+00   Na2SO4:10H2O               ( -7.67, -1.49)
         H2O(g)     -4.290e+04      0.000e+00      0.000e+00   H2O                        ( -0.00, -0.10)
      Anorthite     -1.303e+00      0.000e+00      0.000e+00   CaAl2Si2O8                 (      ,      )
     Chalcedony     -9.256e+00      0.000e+00      0.000e+00   SiO2                       (  0.24,  1.10)
Montmorillonite     -1.047e+01      0.000e+00      0.000e+00   (HNaK)0.14Mg0.45Fe0.33Al1  (      ,      )
Montmorillonite      1.440e+01      0.000e+00      0.000e+00   (HNaK)0.09Mg0.29Fe0.24Al1  (      ,      )
      Kaolinite     -2.303e+00      0.000e+00      0.000e+00   Al2Si2O5(OH)4              (      ,      )
      Sepiolite     -1.674e-01      0.000e+00      0.000e+00   Mg2Si3O7.5OH:3H2O          (  0.65,  6.42)

Redox mole transfers:    

Sum of residuals (epsilons in documentation):         7.114e+01
Sum of delta/uncertainty limit:                       1.529e+00
Maximum fractional error in element concentration:    5.000e-02
===============================================================================


Solution 1: Inflow

                         Input          Delta    Input+Delta
             pH      8.100e+00  +   0.000e+00  =   8.100e+00
             Al      0.000e+00  +   0.000e+00  =   0.000e+00
     Alkalinity      6.067e-03  +  -2.487e-04  =   5.819e-03
          C(-4)      0.000e+00  +   0.000e+00  =   0.000e+00
           C(4)      6.021e-03  +   0.000e+00  =   6.021e-03
             Ca      1.698e-03  +   0.000e+00  =   1.698e-03
             Cl      9.234e-03  +   0.000e+00  =   9.234e-03
          Fe(2)      0.000e+00  +   0.000e+00  =   0.000e+00
          Fe(3)      0.000e+00  +   0.000e+00  =   0.000e+00
           H(0)      0.000e+00  +   0.000e+00  =   0.000e+00
              K      4.350e-04  +   0.000e+00  =   4.350e-04
             Mg      1.730e-03  +   0.000e+00  =   1.730e-03
             Na      9.449e-03  +  -2.913e-04  =   9.158e-03
           O(0)      0.000e+00  +   0.000e+00  =   0.000e+00
          S(-2)      0.000e+00  +   0.000e+00  =   0.000e+00
           S(6)      6.980e-04  +   0.000e+00  =   6.980e-04
             Si      5.000e-04  +   0.000e+00  =   5.000e-04

Solution 2: Lake

                         Input          Delta    Input+Delta
             pH      7.500e+00  +   0.000e+00  =   7.500e+00
             Al      0.000e+00  +   0.000e+00  =   0.000e+00
     Alkalinity      6.554e-03  +   3.277e-04  =   6.882e-03
          C(-4)      0.000e+00  +   0.000e+00  =   0.000e+00
           C(4)      6.304e-03  +   0.000e+00  =   6.304e-03
             Ca      1.122e-02  +  -5.608e-04  =   1.066e-02
             Cl      5.835e+00  +   2.917e-01  =   6.126e+00
          Fe(2)      0.000e+00  +   0.000e+00  =   0.000e+00
          Fe(3)      0.000e+00  +   0.000e+00  =   0.000e+00
           H(0)      0.000e+00  +   0.000e+00  =   0.000e+00
              K      1.665e-01  +  -8.324e-03  =   1.582e-01
             Mg      4.919e-01  +  -2.460e-02  =   4.673e-01
             Na      5.429e+00  +   1.734e-01  =   5.602e+00
           O(0)      0.000e+00  +   0.000e+00  =   0.000e+00
          S(-2)      0.000e+00  +   0.000e+00  =   0.000e+00
           S(6)      2.914e-01  +   0.000e+00  =   2.914e-01
             Si      5.000e-04  +   0.000e+00  =   5.000e-04

Solution fractions:                   Minimum        Maximum
   Solution   1      6.635e+02      0.000e+00      0.000e+00
   Solution   2      1.000e+00      0.000e+00      0.000e+00

Phase mole transfers:                 Minimum        Maximum   Formula             (Approximate SI in solution 1, 2 at 298 K,   1 atm)
         CO2(g)     -3.988e+00      0.000e+00      0.000e+00   CO2                        ( -2.58, -3.22)
     Mirabilite     -1.717e-01      0.000e+00      0.000e+00   Na2SO4:10H2O               ( -7.67, -1.49)
         H2O(g)     -3.677e+04      0.000e+00      0.000e+00   H2O                        ( -0.00, -0.10)
      Anorthite     -1.116e+00      0.000e+00      0.000e+00   CaAl2Si2O8                 (      ,      )
     Chalcedony     -7.112e+00      0.000e+00      0.000e+00   SiO2                       (  0.24,  1.10)
Montmorillonite     -8.028e+00      0.000e+00      0.000e+00   (HNaK)0.14Mg0.45Fe0.33Al1  (      ,      )
Montmorillonite      1.104e+01      0.000e+00      0.000e+00   (HNaK)0.09Mg0.29Fe0.24Al1  (      ,      )
      Kaolinite     -1.649e+00      0.000e+00      0.000e+00   Al2Si2O5(OH)4              (      ,      )
      Sepiolite     -1.345e-01      0.000e+00      0.000e+00   Mg2Si3O7.5OH:3H2O          (  0.65,  6.42)

Redox mole transfers:    

Sum of residuals (epsilons in documentation):         9.586e+02
Sum of delta/uncertainty limit:                       7.075e+00
Maximum fractional error in element concentration:    5.000e-02

Model contains minimum number of phases.
===============================================================================


Solution 1: Inflow

                         Input          Delta    Input+Delta
             pH      8.100e+00  +   0.000e+00  =   8.100e+00
             Al      0.000e+00  +   0.000e+00  =   0.000e+00
     Alkalinity      6.067e-03  +   0.000e+00  =   6.067e-03
          C(-4)      0.000e+00  +   0.000e+00  =   0.000e+00
           C(4)      6.021e-03  +   0.000e+00  =   6.021e-03
             Ca      1.698e-03  +   0.000e+00  =   1.698e-03
             Cl      9.234e-03  +   0.000e+00  =   9.234e-03
          Fe(2)      0.000e+00  +   0.000e+00  =   0.000e+00
          Fe(3)      0.000e+00  +   0.000e+00  =   0.000e+00
           H(0)      0.000e+00  +   0.000e+00  =   0.000e+00
              K      4.350e-04  +   0.000e+00  =   4.350e-04
             Mg      1.730e-03  +   0.000e+00  =   1.730e-03
             Na      9.449e-03  +  -4.255e-05  =   9.406e-03
           O(0)      0.000e+00  +   0.000e+00  =   0.000e+00
          S(-2)      0.000e+00  +   0.000e+00  =   0.000e+00
           S(6)      6.980e-04  +   0.000e+00  =   6.980e-04
             Si      5.000e-04  +   0.000e+00  =   5.000e-04

Solution 2: Lake

                         Input          Delta    Input+Delta
             pH      7.500e+00  +   0.000e+00  =   7.500e+00
             Al      0.000e+00  +   0.000e+00  =   0.000e+00
     Alkalinity      6.554e-03  +   0.000e+00  =   6.554e-03
          C(-4)      0.000e+00  +   0.000e+00  =   0.000e+00
           C(4)      6.304e-03  +   0.000e+00  =   6.304e-03
             Ca      1.122e-02  +   0.000e+00  =   1.122e-02
             Cl      5.835e+00  +  -9.410e-02  =   5.741e+00
          Fe(2)      0.000e+00  +   0.000e+00  =   0.000e+00
          Fe(3)      0.000e+00  +   0.000e+00  =   0.000e+00
           H(0)      0.000e+00  +   0.000e+00  =   0.000e+00
              K      1.665e-01  +   0.000e+00  =   1.665e-01
             Mg      4.919e-01  +   5.378e-13  =   4.919e-01
             Na      5.429e+00  +  -2.714e-01  =   5.157e+00
           O(0)      0.000e+00  +   0.000e+00  =   0.000e+00
          S(-2)      0.000e+00  +   0.000e+00  =   0.000e+00
           S(6)      2.914e-01  +  -4.493e-13  =   2.914e-01
             Si      5.000e-04  +  -4.997e-14  =   5.000e-04

Solution fractions:                   Minimum        Maximum
   Solution   1      6.217e+02      0.000e+00      0.000e+00
   Solution   2      1.000e+00      0.000e+00      0.000e+00

Phase mole transfers:                 Minimum        Maximum   Formula             (Approximate SI in solution 1, 2 at 298 K,   1 atm)
      Aragonite     -1.044e+00      0.000e+00      0.000e+00   CaCO3                      (  0.78, -0.09)
         CO2(g)     -2.692e+00      0.000e+00      0.000e+00   CO2                        ( -2.58, -3.22)
     Mirabilite     -1.425e-01      0.000e+00      0.000e+00   Na2SO4:10H2O               ( -7.67, -1.49)
         H2O(g)     -3.445e+04      0.000e+00      0.000e+00   H2O                        ( -0.00, -0.10)
         Albite     -3.016e-01      0.000e+00      0.000e+00   NaAlSi3O8                  (      ,      )
     Chalcedony     -5.049e+00      0.000e+00      0.000e+00   SiO2                       (  0.24,  1.10)
Montmorillonite     -6.397e+00      0.000e+00      0.000e+00   (HNaK)0.14Mg0.45Fe0.33Al1  (      ,      )
Montmorillonite      8.796e+00      0.000e+00      0.000e+00   (HNaK)0.09Mg0.29Fe0.24Al1  (      ,      )
      Kaolinite     -2.052e+00      0.000e+00      0.000e+00   Al2Si2O5(OH)4              (      ,      )
      Sepiolite     -1.279e-01      0.000e+00      0.000e+00   Mg2Si3O7.5OH:3H2O          (  0.65,  6.42)

Redox mole transfers:    

Sum of residuals (epsilons in documentation):         5.732e+01
Sum of delta/uncertainty limit:                       1.413e+00
Maximum fractional error in element concentration:    5.000e-02
===============================================================================


Solution 1: Inflow

                         Input          Delta    Input+Delta
             pH      8.100e+00  +   0.000e+00  =   8.100e+00
             Al      0.000e+00  +   0.000e+00  =   0.000e+00
     Alkalinity      6.067e-03  +  -2.487e-04  =   5.819e-03
          C(-4)      0.000e+00  +   0.000e+00  =   0.000e+00
           C(4)      6.021e-03  +   0.000e+00  =   6.021e-03
             Ca      1.698e-03  +   0.000e+00  =   1.698e-03
             Cl      9.234e-03  +   0.000e+00  =   9.234e-03
          Fe(2)      0.000e+00  +   0.000e+00  =   0.000e+00
          Fe(3)      0.000e+00  +   0.000e+00  =   0.000e+00
           H(0)      0.000e+00  +   0.000e+00  =   0.000e+00
              K      4.350e-04  +   0.000e+00  =   4.350e-04
             Mg      1.730e-03  +   0.000e+00  =   1.730e-03
             Na      9.449e-03  +  -2.913e-04  =   9.158e-03
           O(0)      0.000e+00  +   0.000e+00  =   0.000e+00
          S(-2)      0.000e+00  +   0.000e+00  =   0.000e+00
           S(6)      6.980e-04  +   0.000e+00  =   6.980e-04
             Si      5.000e-04  +   0.000e+00  =   5.000e-04

Solution 2: Lake

                         Input          Delta    Input+Delta
             pH      7.500e+00  +   0.000e+00  =   7.500e+00
             Al      0.000e+00  +   0.000e+00  =   0.000e+00
     Alkalinity      6.554e-03  +   3.277e-04  =   6.882e-03
          C(-4)      0.000e+00  +   0.000e+00  =   0.000e+00
           C(4)      6.304e-03  +   0.000e+00  =   6.304e-03
             Ca      1.122e-02  +  -5.608e-04  =   1.066e-02
             Cl      5.835e+00  +   2.917e-01  =   6.126e+00
          Fe(2)      0.000e+00  +   0.000e+00  =   0.000e+00
          Fe(3)      0.000e+00  +   0.000e+00  =   0.000e+00
           H(0)      0.000e+00  +   0.000e+00  =   0.000e+00
              K      1.665e-01  +  -8.324e-03  =   1.582e-01
             Mg      4.919e-01  +  -2.460e-02  =   4.673e-01
             Na      5.429e+00  +   1.734e-01  =   5.602e+00
           O(0)      0.000e+00  +   0.000e+00  =   0.000e+00
          S(-2)      0.000e+00  +   0.000e+00  =   0.000e+00
           S(6)      2.914e-01  +  -4.794e-13  =   2.914e-01
             Si      5.000e-04  +  -5.327e-14  =   5.000e-04

Solution fractions:                   Minimum        Maximum
   Solution   1      6.635e+02      0.000e+00      0.000e+00
   Solution   2      1.000e+00      0.000e+00      0.000e+00

Phase mole transfers:                 Minimum        Maximum   Formula             (Approximate SI in solution 1, 2 at 298 K,   1 atm)
      Aragonite     -1.116e+00      0.000e+00      0.000e+00   CaCO3                      (  0.78, -0.09)
         CO2(g)     -2.872e+00      0.000e+00      0.000e+00   CO2                        ( -2.58, -3.22)
     Mirabilite     -1.717e-01      0.000e+00      0.000e+00   Na2SO4:10H2O               ( -7.67, -1.49)
         H2O(g)     -3.677e+04      0.000e+00      0.000e+00   H2O                        ( -0.00, -0.10)
     Chalcedony     -7.112e+00      0.000e+00      0.000e+00   SiO2                       (  0.24,  1.10)
Montmorillonite     -8.028e+00      0.000e+00      0.000e+00   (HNaK)0.14Mg0.45Fe0.33Al1  (      ,      )
Montmorillonite      1.104e+01      0.000e+00      0.000e+00   (HNaK)0.09Mg0.29Fe0.24Al1  (      ,      )
      Kaolinite     -2.765e+00      0.000e+00      0.000e+00   Al2Si2O5(OH)4              (      ,      )
      Sepiolite     -1.345e-01      0.000e+00      0.000e+00   Mg2Si3O7.5OH:3H2O          (  0.65,  6.42)

Redox mole transfers:    

Sum of residuals (epsilons in documentation):         9.586e+02
Sum of delta/uncertainty limit:                       7.075e+00
Maximum fractional error in element concentration:    5.000e-02

Model contains minimum number of phases.
===============================================================================


Solution 1: Inflow

                         Input          Delta    Input+Delta
             pH      8.100e+00  +   0.000e+00  =   8.100e+00
             Al      0.000e+00  +   0.000e+00  =   0.000e+00
     Alkalinity      6.067e-03  +   0.000e+00  =   6.067e-03
          C(-4)      0.000e+00  +   0.000e+00  =   0.000e+00
           C(4)      6.021e-03  +   0.000e+00  =   6.021e-03
             Ca      1.698e-03  +   0.000e+00  =   1.698e-03
             Cl      9.234e-03  +   0.000e+00  =   9.234e-03
          Fe(2)      0.000e+00  +   0.000e+00  =   0.000e+00
          Fe(3)      0.000e+00  +   0.000e+00  =   0.000e+00
           H(0)      0.000e+00  +   0.000e+00  =   0.000e+00
              K      4.350e-04  +   0.000e+00  =   4.350e-04
             Mg      1.730e-03  +   0.000e+00  =   1.730e-03
             Na      9.449e-03  +  -4.255e-05  =   9.406e-03
           O(0)      0.000e+00  +   0.000e+00  =   0.000e+00
          S(-2)      0.000e+00  +   0.000e+00  =   0.000e+00
           S(6)      6.980e-04  +   0.000e+00  =   6.980e-04
             Si      5.000e-04  +   0.000e+00  =   5.000e-04

Solution 2: Lake

                         Input          Delta    Input+Delta
             pH      7.500e+00  +   0.000e+00  =   7.500e+00
             Al      0.000e+00  +   0.000e+00  =   0.000e+00
     Alkalinity      6.554e-03  +   0.000e+00  =   6.554e-03
          C(-4)      0.000e+00  +   0.000e+00  =   0.000e+00
           C(4)      6.304e-03  +   0.000e+00  =   6.304e-03
             Ca      1.122e-02  +   0.000e+00  =   1.122e-02
             Cl      5.835e+00  +  -9.410e-02  =   5.741e+00
          Fe(2)      0.000e+00  +   0.000e+00  =   0.000e+00
          Fe(3)      0.000e+00  +   0.000e+00  =   0.000e+00
           H(0)      0.000e+00  +   0.000e+00  =   0.000e+00
              K      1.665e-01  +   0.000e+00  =   1.665e-01
             Mg      4.919e-01  +   0.000e+00  =   4.919e-01
             Na      5.429e+00  +  -2.714e-01  =   5.157e+00
           O(0)      0.000e+00  +   0.000e+00  =   0.000e+00
          S(-2)      0.000e+00  +   0.000e+00  =   0.000e+00
           S(6)      2.914e-01  +   0.000e+00  =   2.914e-01
             Si      5.000e-04  +   0.000e+00  =   5.000e-04

Solution fractions:                   Minimum        Maximum
   Solution   1      6.217e+02      0.000e+00      0.000e+00
   Solution   2      1.000e+00      0.000e+00      0.000e+00

Phase mole transfers:                 Minimum        Maximum   Formula             (Approximate SI in solution 1, 2 at 298 K,   1 atm)
         CO2(g)     -3.737e+00      0.000e+00      0.000e+00   CO2                        ( -2.58, -3.22)
     Mirabilite     -1.425e-01      0.000e+00      0.000e+00   Na2SO4:10H2O               ( -7.67, -1.49)
         H2O(g)     -3.445e+04      0.000e+00      0.000e+00   H2O                        ( -0.00, -0.10)
      Anorthite     -1.044e+00      0.000e+00      0.000e+00   CaAl2Si2O8                 (      ,      )
         Albite     -3.016e-01      0.000e+00      0.000e+00   NaAlSi3O8                  (      ,      )
     Chalcedony     -5.049e+00      0.000e+00      0.000e+00   SiO2                       (  0.24,  1.10)
Montmorillonite     -6.397e+00      0.000e+00      0.000e+00   (HNaK)0.14Mg0.45Fe0.33Al1  (      ,      )
Montmorillonite      8.796e+00      0.000e+00      0.000e+00   (HNaK)0.09Mg0.29Fe0.24Al1  (      ,      )
      Kaolinite     -1.008e+00      0.000e+00      0.000e+00   Al2Si2O5(OH)4              (      ,      )
      Sepiolite     -1.279e-01      0.000e+00      0.000e+00   Mg2Si3O7.5OH:3H2O          (  0.65,  6.42)

Redox mole transfers:    

Sum of residuals (epsilons in documentation):         5.732e+01
Sum of delta/uncertainty limit:                       1.413e+00
Maximum fractional error in element concentration:    5.000e-02
===============================================================================


Solution 1: Inflow

                         Input          Delta    Input+Delta
             pH      8.100e+00  +   0.000e+00  =   8.100e+00
             Al      0.000e+00  +   0.000e+00  =   0.000e+00
     Alkalinity      6.067e-03  +   0.000e+00  =   6.067e-03
          C(-4)      0.000e+00  +   0.000e+00  =   0.000e+00
           C(4)      6.021e-03  +   0.000e+00  =   6.021e-03
             Ca      1.698e-03  +   0.000e+00  =   1.698e-03
             Cl      9.234e-03  +   0.000e+00  =   9.234e-03
          Fe(2)      0.000e+00  +   0.000e+00  =   0.000e+00
          Fe(3)      0.000e+00  +   0.000e+00  =   0.000e+00
           H(0)      0.000e+00  +   0.000e+00  =   0.000e+00
              K      4.350e-04  +   0.000e+00  =   4.350e-04
             Mg      1.730e-03  +   0.000e+00  =   1.730e-03
             Na      9.449e-03  +  -4.255e-05  =   9.406e-03
           O(0)      0.000e+00  +   0.000e+00  =   0.000e+00
          S(-2)      0.000e+00  +   0.000e+00  =   0.000e+00
           S(6)      6.980e-04  +   0.000e+00  =   6.980e-04
             Si      5.000e-04  +   0.000e+00  =   5.000e-04

Solution 2: Lake

                         Input          Delta    Input+Delta
             pH      7.500e+00  +   0.000e+00  =   7.500e+00
             Al      0.000e+00  +   0.000e+00  =   0.000e+00
     Alkalinity      6.554e-03  +   0.000e+00  =   6.554e-03
          C(-4)      0.000e+00  +   0.000e+00  =   0.000e+00
           C(4)      6.304e-03  +   0.000e+00  =   6.304e-03
             Ca      1.122e-02  +   0.000e+00  =   1.122e-02
             Cl      5.835e+00  +   1.281e-01  =   5.963e+00
          Fe(2)      0.000e+00  +   0.000e+00  =   0.000e+00
          Fe(3)      0.000e+00  +   0.000e+00  =   0.000e+00
           H(0)      0.000e+00  +   0.000e+00  =   0.000e+00
              K      1.665e-01  +   0.000e+00  =   1.665e-01
             Mg      4.919e-01  +  -2.460e-02  =   4.673e-01
             Na      5.429e+00  +   0.000e+00  =   5.429e+00
           O(0)      0.000e+00  +   0.000e+00  =   0.000e+00
          S(-2)      0.000e+00  +   0.000e+00  =   0.000e+00
           S(6)      2.914e-01  +  -5.593e-13  =   2.914e-01
             Si      5.000e-04  +  -6.234e-14  =   5.000e-04

Solution fractions:                   Minimum        Maximum
   Solution   1      7.739e+02      0.000e+00      0.000e+00
   Solution   2      1.000e+00      0.000e+00      0.000e+00

Phase mole transfers:                 Minimum        Maximum   Formula             (Approximate SI in solution 1, 2 at 298 K,   1 atm)
         Halite     -1.183e+00      0.000e+00      0.000e+00   NaCl                       ( -4.18,  1.54)
      Aragonite     -1.303e+00      0.000e+00      0.000e+00   CaCO3                      (  0.78, -0.09)
         CO2(g)     -3.350e+00      0.000e+00      0.000e+00   CO2                        ( -2.58, -3.22)
     Mirabilite     -2.487e-01      0.000e+00      0.000e+00   Na2SO4:10H2O               ( -7.67, -1.49)
         H2O(g)     -4.290e+04      0.000e+00      0.000e+00   H2O                        ( -0.00, -0.10)
     Chalcedony     -9.256e+00      0.000e+00      0.000e+00   SiO2                       (  0.24,  1.10)
Montmorillonite     -1.047e+01      0.000e+00      0.000e+00   (HNaK)0.14Mg0.45Fe0.33Al1  (      ,      )
Montmorillonite      1.440e+01      0.000e+00      0.000e+00   (HNaK)0.09Mg0.29Fe0.24Al1  (      ,      )
      Kaolinite     -3.606e+00      0.000e+00      0.000e+00   Al2Si2O5(OH)4              (      ,      )
      Sepiolite     -1.674e-01      0.000e+00      0.000e+00   Mg2Si3O7.5OH:3H2O          (  0.65,  6.42)

Redox mole transfers:    

Sum of residuals (epsilons in documentation):         7.114e+01
Sum of delta/uncertainty limit:                       1.529e+00
Maximum fractional error in element concentration:    5.000e-02
===============================================================================


Solution 1: Inflow

                         Input          Delta    Input+Delta
             pH      8.100e+00  +   0.000e+00  =   8.100e+00
             Al      0.000e+00  +   0.000e+00  =   0.000e+00
     Alkalinity      6.067e-03  +   0.000e+00  =   6.067e-03
          C(-4)      0.000e+00  +   0.000e+00  =   0.000e+00
           C(4)      6.021e-03  +   0.000e+00  =   6.021e-03
             Ca      1.698e-03  +   0.000e+00  =   1.698e-03
             Cl      9.234e-03  +   0.000e+00  =   9.234e-03
          Fe(2)      0.000e+00  +   0.000e+00  =   0.000e+00
          Fe(3)      0.000e+00  +   0.000e+00  =   0.000e+00
           H(0)      0.000e+00  +   0.000e+00  =   0.000e+00
              K      4.350e-04  +   0.000e+00  =   4.350e-04
             Mg      1.730e-03  +   0.000e+00  =   1.730e-03
             Na      9.449e-03  +  -4.255e-05  =   9.406e-03
           O(0)      0.000e+00  +   0.000e+00  =   0.000e+00
          S(-2)      0.000e+00  +   0.000e+00  =   0.000e+00
           S(6)      6.980e-04  +   0.000e+00  =   6.980e-04
             Si      5.000e-04  +   0.000e+00  =   5.000e-04

Solution 2: Lake

                         Input          Delta    Input+Delta
             pH      7.500e+00  +   0.000e+00  =   7.500e+00
             Al      0.000e+00  +   0.000e+00  =   0.000e+00
     Alkalinity      6.554e-03  +   0.000e+00  =   6.554e-03
          C(-4)      0.000e+00  +   0.000e+00  =   0.000e+00
           C(4)      6.304e-03  +   0.000e+00  =   6.304e-03
             Ca      1.122e-02  +   0.000e+00  =   1.122e-02
             Cl      5.835e+00  +   1.281e-01  =   5.963e+00
          Fe(2)      0.000e+00  +   0.000e+00  =   0.000e+00
          Fe(3)      0.000e+00  +   0.000e+00  =   0.000e+00
           H(0)      0.000e+00  +   0.000e+00  =   0.000e+00
              K      1.665e-01  +   3.873e-13  =   1.665e-01
             Mg      4.919e-01  +  -2.460e-02  =   4.673e-01
             Na      5.429e+00  +   2.569e-13  =   5.429e+00
           O(0)      0.000e+00  +   0.000e+00  =   0.000e+00
          S(-2)      0.000e+00  +   0.000e+00  =   0.000e+00
           S(6)      2.914e-01  +   1.103e-14  =   2.914e-01
             Si      5.000e-04  +   0.000e+00  =   5.000e-04

Solution fractions:                   Minimum        Maximum
   Solution   1      7.739e+02      0.000e+00      0.000e+00
   Solution   2      1.000e+00      0.000e+00      0.000e+00

Phase mole transfers:                 Minimum        Maximum   Formula             (Approximate SI in solution 1, 2 at 298 K,   1 atm)
         Halite     -1.183e+00      0.000e+00      0.000e+00   NaCl                       ( -4.18,  1.54)
      Aragonite     -4.653e+00      0.000e+00      0.000e+00   CaCO3                      (  0.78, -0.09)
     Mirabilite     -2.487e-01      0.000e+00      0.000e+00   Na2SO4:10H2O               ( -7.67, -1.49)
         H2O(g)     -4.289e+04      0.000e+00      0.000e+00   H2O                        ( -0.00, -0.10)
      Anorthite      3.350e+00      0.000e+00      0.000e+00   CaAl2Si2O8                 (      ,      )
     Chalcedony     -9.256e+00      0.000e+00      0.000e+00   SiO2                       (  0.24,  1.10)
Montmorillonite     -1.047e+01      0.000e+00      0.000e+00   (HNaK)0.14Mg0.45Fe0.33Al1  (      ,      )
Montmorillonite      1.440e+01      0.000e+00      0.000e+00   (HNaK)0.09Mg0.29Fe0.24Al1  (      ,      )
      Kaolinite     -6.956e+00      0.000e+00      0.000e+00   Al2Si2O5(OH)4              (      ,      )
      Sepiolite     -1.674e-01      0.000e+00      0.000e+00   Mg2Si3O7.5OH:3H2O          (  0.65,  6.42)

Redox mole transfers:    

Sum of residuals (epsilons in documentation):         7.114e+01
Sum of delta/uncertainty limit:                       1.529e+00
Maximum fractional error in element concentration:    5.000e-02
===============================================================================


Summary of inverse modeling:

	Number of models found: 9
	Number of minimal models found: 3
	Number of infeasible sets of phases saved: 28
	Number of calls to cl1: 49
------------------
End of simulation.
------------------

------------------------------------
Reading input data for simulation 4.
------------------------------------

	SOLUTION 1 
		units   mg/l
		temp	17
		pH 	7.6
		Ca	41
		Mg	13
		Na	3.8
		Alkalinity	178 as HCO3
		S(6)	19
	SOLUTION 2 
		units   mg/l
		temp	19
		pH 	8.4
		Ca	3
		Mg	1.9
		Na	140
		Alkalinity	367 as HCO3
		S(6)	13
	INVERSE_MODELING 1
		solutions 1 2
		uncertainty 0.03
		balances
		phases
			CH2O
			Calcite
			Goethite
[...]
   Mg(SO4)2-2      7.628e-09   5.573e-09    -8.118    -8.254    -0.136     31.78
   FeSO4           7.068e-09   7.079e-09    -8.151    -8.150     0.001     28.98
   HSO4-           2.209e-10   2.031e-10    -9.656    -9.692    -0.036     38.92
   CaHSO4+         2.275e-12   2.092e-12   -11.643   -11.679    -0.036     (0)  
   FeHSO4+         1.402e-15   1.289e-15   -14.853   -14.890    -0.036     (0)  
   Na2SO4          2.464e-17   2.468e-17   -16.608   -16.608     0.001     57.39
Z             1.760e-05
   Z               1.760e-05   1.763e-05    -4.754    -4.754     0.001     (0)  

------------------------------Saturation indices-------------------------------

  Phase               SI** log IAP   log K(283 K,   1 atm)

  Anhydrite        -7.63     -7.63    0.00  CaSO4Z0.120
  Anhydrite1       -7.59     -7.59    0.00  CaSO4Z0.110
  Aragonite        -0.19     -8.44   -8.25  CaCO3
  Arcanite        -11.36    -13.47   -2.11  K2SO4
  Brucite          -5.96     11.94   17.90  Mg(OH)2
  Calcite          -0.10     -8.44   -8.35  CaCO3
  CH2O            -33.72    -33.72    0.00  CH2O
  CO2(g)           -2.26     -3.52   -1.27  CO2
  Dolomite         -0.10    -16.98  -16.88  CaMg(CO3)2
  Epsomite         -5.32     -7.15   -1.83  MgSO4:7H2O
  Gypsum           -2.55     -7.06   -4.51  CaSO4:2H2O
  H2(g)           -15.12    -18.18   -3.06  H2
  H2O(g)           -0.00     -0.00    0.00  H2O
  Halite           -9.47     -9.47    0.00  NaCl
  Hexahydrite      -5.57     -7.15   -1.59  MgSO4:6H2O
  Kieserite        -5.84     -7.15   -1.32  MgSO4:H2O
  Melanterite      -7.86    -10.27   -2.41  FeSO4:7H2O
  Mirabilite      -13.47    -13.47    0.00  Na2SO4:10H2O
  O2(g)           -58.53    -61.30   -2.76  O2
  Siderite         -0.86    -11.65  -10.79  FeCO3
  Sylvite          -9.47     -9.47    0.00  KCl
  Thenardite      -14.31    -13.47    0.84  Na2SO4

**For a gas, SI = log10(fugacity). Fugacity = pressure * phi / 1 atm.
  For ideal gases, phi = 1.

Initial solution 2.	Mysse

-----------------------------Solution composition------------------------------

	Elements           Molality       Moles

	C(4)              6.870e-03   6.870e-03
	Ca                1.128e-02   1.128e-02
	Cl                1.785e-02   1.785e-02
	Fe(2)             4.000e-07   4.000e-07
	K                 2.540e-03   2.540e-03
	Mg                4.540e-03   4.540e-03
	Na                3.189e-02   3.189e-02
	S(-2)             2.590e-04   2.590e-04
	S(6)              1.986e-02   1.986e-02
	Z                 2.330e-03   2.330e-03

----------------------------Description of solution----------------------------

                                       pH  =   6.610    
                                       pe  =   0.000    
      Specific Conductance (µS/cm,  63°C)  = 9823
                          Density (g/cm³)  =   0.98523
                               Volume (L)  =   1.01939
                        Viscosity (mPa s)  =   0.45175
                        Activity of water  =   0.999
                 Ionic strength (mol/kgw)  =   6.634e-02
                       Mass of water (kg)  =   1.000e+00
                 Total alkalinity (eq/kg)  =   5.175e-03
                       Total CO2 (mol/kg)  =   6.870e-03
                         Temperature (°C)  =  63.00
                  Electrical balance (eq)  =   3.326e-03
 Percent error, 100*(Cat-|An|)/(Cat+|An|)  =   3.50
                               Iterations  =   9 (17 overall)
                                  Total H  = 1.110178e+02
                                  Total O  = 5.560441e+01

---------------------------------Redox couples---------------------------------

	Redox couple             pe  Eh (volts)

	S(-2)/S(6)          -3.6570     -0.2439

----------------------------Distribution of species----------------------------

                                               Log       Log       Log    mole V
   Species          Molality    Activity  Molality  Activity     Gamma   cm³/mol

   OH-             5.918e-07   4.607e-07    -6.228    -6.337    -0.109     -3.65
   H+              2.949e-07   2.455e-07    -6.530    -6.610    -0.080      0.00
   H2O             5.551e+01   9.985e-01     1.744    -0.001     0.000     18.35
C(4)          6.870e-03
   HCO3-           4.845e-03   3.884e-03    -2.315    -2.411    -0.096     26.37
   CO2             1.862e-03   1.881e-03    -2.730    -2.726     0.004     36.65
   NaHCO3          7.096e-05   7.261e-05    -4.149    -4.139     0.010     19.55
   MgHCO3+         6.700e-05   5.259e-05    -4.174    -4.279    -0.105      6.10
   CaCO3           1.448e-05   1.470e-05    -4.839    -4.833     0.007    -14.51
   KHCO3           5.412e-06   5.495e-06    -5.267    -5.260     0.007     23.21
   CO3-2           2.804e-06   1.153e-06    -5.552    -5.938    -0.386     -2.97
   MgCO3           1.673e-06   1.699e-06    -5.776    -5.770     0.007    -17.09
   CaHCO3+         7.707e-07   6.218e-07    -6.113    -6.206    -0.093     10.65
   (CO2)2          2.143e-07   2.165e-07    -6.669    -6.665     0.004     72.47
   FeHCO3+         1.230e-08   9.732e-09    -7.910    -8.012    -0.102     (0)  
   FeCO3           6.823e-10   6.928e-10    -9.166    -9.159     0.007     (0)  
Ca            1.128e-02
   Ca+2            6.283e-03   2.592e-03    -2.202    -2.586    -0.385    -17.60
   CaSO4           4.982e-03   5.016e-03    -2.303    -2.300     0.003      9.78
   CaCO3           1.448e-05   1.470e-05    -4.839    -4.833     0.007    -14.51
   CaHCO3+         7.707e-07   6.218e-07    -6.113    -6.206    -0.093     10.65
   CaHSO4+         1.007e-08   7.970e-09    -7.997    -8.099    -0.102     (0)  
   CaOH+           2.211e-09   1.750e-09    -8.655    -8.757    -0.102     (0)  
Cl            1.785e-02
   Cl-             1.785e-02   1.396e-02    -1.748    -1.855    -0.107     18.28
   HCl             8.741e-10   9.328e-10    -9.058    -9.030     0.028     22.11
   FeCl+           6.104e-10   4.830e-10    -9.214    -9.316    -0.102     (0)  
Fe(2)         4.000e-07
   Fe(HS)2         2.880e-07   2.925e-07    -6.541    -6.534     0.007     (0)  
   Fe+2            5.915e-08   2.506e-08    -7.228    -7.601    -0.373    -19.97
   FeSO4           3.413e-08   3.465e-08    -7.467    -7.460     0.007     32.00
   FeHCO3+         1.230e-08   9.732e-09    -7.910    -8.012    -0.102     (0)  
   Fe(HS)3-        4.605e-09   3.644e-09    -8.337    -8.438    -0.102     (0)  
   FeCO3           6.823e-10   6.928e-10    -9.166    -9.159     0.007     (0)  
   FeCl+           6.104e-10   4.830e-10    -9.214    -9.316    -0.102     (0)  
   FeOH+           5.023e-10   4.000e-10    -9.299    -9.398    -0.099     (0)  
   Fe(OH)2         2.558e-13   2.598e-13   -12.592   -12.585     0.007     (0)  
   FeHSO4+         9.737e-14   7.706e-14   -13.012   -13.113    -0.102     (0)  
   Fe(OH)3-        6.864e-17   5.466e-17   -16.163   -16.262    -0.099     (0)  
H(0)          6.002e-17
   H2              3.001e-17   3.050e-17   -16.523   -16.516     0.007     16.98
K             2.540e-03
   K+              2.349e-03   1.833e-03    -2.629    -2.737    -0.108     10.00
   KSO4-           1.861e-04   1.534e-04    -3.730    -3.814    -0.084     22.75
   KHCO3           5.412e-06   5.495e-06    -5.267    -5.260     0.007     23.21
Mg            4.540e-03
   MgSO4           2.406e-03   2.480e-03    -2.619    -2.605     0.013      1.75
   Mg+2            2.023e-03   8.619e-04    -2.694    -3.065    -0.371    -22.51
   MgHCO3+         6.700e-05   5.259e-05    -4.174    -4.279    -0.105      6.10
   Mg(SO4)2-2      4.181e-05   1.869e-05    -4.379    -4.728    -0.350     53.86
   MgCO3           1.673e-06   1.699e-06    -5.776    -5.770     0.007    -17.09
   MgOH+           3.291e-07   2.671e-07    -6.483    -6.573    -0.091     (0)  
Na            3.189e-02
   Na+             3.012e-02   2.397e-02    -1.521    -1.620    -0.099      0.08
   NaSO4-          1.700e-03   1.345e-03    -2.770    -2.871    -0.102     17.70
   NaHCO3          7.096e-05   7.261e-05    -4.149    -4.139     0.010     19.55
   Na2SO4          4.057e-07   4.112e-07    -6.392    -6.386     0.006     35.74
O(0)          0.000e+00
   O2              0.000e+00   0.000e+00   -48.368   -48.361     0.007     32.51
S(-2)         2.590e-04
   HS-             1.470e-04   1.144e-04    -3.833    -3.941    -0.109     21.37
   H2S             1.114e-04   1.131e-04    -3.953    -3.946     0.007     42.59
   Fe(HS)2         2.880e-07   2.925e-07    -6.541    -6.534     0.007     (0)  
   Fe(HS)3-        4.605e-09   3.644e-09    -8.337    -8.438    -0.102     (0)  
   S-2             1.408e-09   5.664e-10    -8.851    -9.247    -0.395     (0)  
   (H2S)2          1.351e-09   1.372e-09    -8.869    -8.863     0.007     27.88
S(6)          1.986e-02
   SO4-2           1.050e-02   4.199e-03    -1.979    -2.377    -0.398     16.55
   CaSO4           4.982e-03   5.016e-03    -2.303    -2.300     0.003      9.78
   MgSO4           2.406e-03   2.480e-03    -2.619    -2.605     0.013      1.75
   NaSO4-          1.700e-03   1.345e-03    -2.770    -2.871    -0.102     17.70
   KSO4-           1.861e-04   1.534e-04    -3.730    -3.814    -0.084     22.75
   Mg(SO4)2-2      4.181e-05   1.869e-05    -4.379    -4.728    -0.350     53.86
   Na2SO4          4.057e-07   4.112e-07    -6.392    -6.386     0.006     35.74
   HSO4-           3.232e-07   2.558e-07    -6.491    -6.592    -0.102     41.69
   FeSO4           3.413e-08   3.465e-08    -7.467    -7.460     0.007     32.00
   CaHSO4+         1.007e-08   7.970e-09    -7.997    -8.099    -0.102     (0)  
   FeHSO4+         9.737e-14   7.706e-14   -13.012   -13.113    -0.102     (0)  
Z             2.330e-03
   Z               2.330e-03   2.366e-03    -2.633    -2.626     0.007     (0)  

------------------------------Saturation indices-------------------------------

  Phase               SI** log IAP   log K(336 K,   1 atm)

  Anhydrite        -5.28     -5.28    0.00  CaSO4Z0.120
  Anhydrite1       -5.25     -5.25    0.00  CaSO4Z0.110
  Aragonite         0.15     -8.52   -8.67  CaCO3
  Arcanite         -6.30     -7.85   -1.55  K2SO4
  Brucite          -4.44     10.15   14.59  Mg(OH)2
  Calcite           0.32     -8.52   -8.84  CaCO3
  CH2O            -29.17    -29.17    0.00  CH2O
  CO2(g)           -0.92     -2.73   -1.80  CO2
  Dolomite          0.53    -17.53  -18.06  CaMg(CO3)2
  Epsomite         -3.94     -5.45   -1.50  MgSO4:7H2O
  FeS(ppt)         -1.02     -4.93   -3.92  FeS
  Gypsum           -0.15     -4.96   -4.82  CaSO4:2H2O
  H2(g)           -13.39    -16.52   -3.13  H2
  H2O(g)           -0.00     -0.00    0.00  H2O
  H2S(g)           -2.63    -10.55   -7.92  H2S
  Halite           -3.48     -3.48    0.00  NaCl
  Hexahydrite      -3.93     -5.45   -1.51  MgSO4:6H2O
  Kieserite        -4.12     -5.44   -1.32  MgSO4:H2O
  Mackinawite      -0.28     -4.93   -4.65  FeS
  Melanterite      -8.13     -9.98   -1.85  FeSO4:7H2O
  Mirabilite       -5.62     -5.62    0.00  Na2SO4:10H2O
  O2(g)           -45.29    -48.36   -3.07  O2
  Pyrite           -2.67     -2.67    0.00  FeS2Z0.156
  Siderite         -2.44    -13.54  -11.10  FeCO3
  Sulfur            5.18      9.27    4.09  S
  Sylvite          -4.59     -4.59    0.00  KCl
  Thenardite       -5.70     -5.62    0.09  Na2SO4

**For a gas, SI = log10(fugacity). Fugacity = pressure * phi / 1 atm.
  For ideal gases, phi = 1.

---------------------------------------------
Beginning of inverse modeling 1 calculations.
---------------------------------------------

Using Cl1 standard precision optimization routine.

Solution 1: Recharge number 3

                         Input          Delta    Input+Delta
             pH      7.550e+00  +   0.000e+00  =   7.550e+00
     Alkalinity      4.014e-03  +   1.080e-04  =   4.122e-03
          C(-4)      0.000e+00  +   0.000e+00  =   0.000e+00
           C(4)      4.300e-03  +  -1.752e-04  =   4.125e-03
             Ca      1.200e-03  +   0.000e+00  =   1.200e-03
             Cl      2.000e-05  +   0.000e+00  =   2.000e-05
          Fe(2)      1.000e-06  +   0.000e+00  =   1.000e-06
          Fe(3)      0.000e+00  +   0.000e+00  =   0.000e+00
           H(0)      0.000e+00  +   0.000e+00  =   0.000e+00
              K      2.000e-05  +   0.000e+00  =   2.000e-05
             Mg      1.010e-03  +   0.000e+00  =   1.010e-03
             Na      2.000e-05  +   0.000e+00  =   2.000e-05
           O(0)      0.000e+00  +   0.000e+00  =   0.000e+00
          S(-2)      0.000e+00  +   0.000e+00  =   0.000e+00
           S(6)      1.600e-04  +   0.000e+00  =   1.600e-04
              X      0.000e+00  +   0.000e+00  =   0.000e+00
              Z      1.760e-05  +   0.000e+00  =   1.760e-05

Solution 2: Mysse

                         Input          Delta    Input+Delta
             pH      6.610e+00  +   0.000e+00  =   6.610e+00
     Alkalinity      5.175e-03  +   0.000e+00  =   5.175e-03
          C(-4)      0.000e+00  +   0.000e+00  =   0.000e+00
           C(4)      6.870e-03  +   0.000e+00  =   6.870e-03
             Ca      1.128e-02  +   0.000e+00  =   1.128e-02
             Cl      1.785e-02  +   0.000e+00  =   1.785e-02
          Fe(2)      4.000e-07  +   0.000e+00  =   4.000e-07
          Fe(3)      0.000e+00  +   0.000e+00  =   0.000e+00
           H(0)      0.000e+00  +   0.000e+00  =   0.000e+00
              K      2.540e-03  +   0.000e+00  =   2.540e-03
             Mg      4.540e-03  +   0.000e+00  =   4.540e-03
             Na      3.189e-02  +  -2.929e-03  =   2.896e-02
           O(0)      0.000e+00  +   0.000e+00  =   0.000e+00
          S(-2)      2.590e-04  +   0.000e+00  =   2.590e-04
           S(6)      1.986e-02  +   1.986e-04  =   2.006e-02
              X      0.000e+00  +   0.000e+00  =   0.000e+00
              Z      2.330e-03  +  -2.330e-05  =   2.307e-03

Solution fractions:                   Minimum        Maximum
   Solution   1      9.999e-01      9.999e-01      1.000e+00
   Solution   2      1.000e+00      1.000e+00      1.000e+00

Phase mole transfers:                 Minimum        Maximum   Formula             (Approximate SI in solution 1, 2 at 336 K,   1 atm)
        Calcite     -9.032e-03     -9.449e-03     -8.749e-03   CaCO3                      (  0.40,  0.32)
       Dolomite      3.530e-03      3.434e-03      3.626e-03   CaMg(CO3)2                 (  1.08,  0.53)
           CH2O      4.717e-03      4.602e-03      5.107e-03   CH2O                       (      ,      )
       Goethite      1.119e-03      1.086e-03      1.226e-03   FeOOH                      (      ,      )
         Pyrite     -1.120e-03     -1.225e-03     -1.088e-03   FeS2Z0.156                 (      ,      )
     Anhydrite1      2.240e-02      2.234e-02      2.261e-02   CaSO4Z0.110                ( -7.59, -5.25)
           CaX2     -6.816e-03     -7.001e-03     -6.582e-03   CaX2                       (      ,      )
            NaX      1.363e-02      1.316e-02      1.400e-02   NaX                        (      ,      )
         Halite      1.531e-02      1.510e-02      1.552e-02   NaCl                       ( -9.47, -3.48)
        Sylvite      2.520e-03      2.494e-03      2.546e-03   KCl                        ( -9.47, -4.59)

Redox mole transfers:    
          Fe(3)      1.119e-03
          S(-2)     -2.499e-03

Sum of residuals (epsilons in documentation):         4.272e+00
Sum of delta/uncertainty limit:                       4.272e+00
Maximum fractional error in element concentration:    9.185e-02

Model contains minimum number of phases.
===============================================================================


Solution 1: Recharge number 3

                         Input          Delta    Input+Delta
             pH      7.550e+00  +   0.000e+00  =   7.550e+00
     Alkalinity      4.014e-03  +   1.068e-04  =   4.121e-03
          C(-4)      0.000e+00  +   0.000e+00  =   0.000e+00
           C(4)      4.300e-03  +   0.000e+00  =   4.300e-03
             Ca      1.200e-03  +   0.000e+00  =   1.200e-03
             Cl      2.000e-05  +   0.000e+00  =   2.000e-05
          Fe(2)      1.000e-06  +  -6.000e-07  =   4.000e-07
          Fe(3)      0.000e+00  +   0.000e+00  =   0.000e+00
           H(0)      0.000e+00  +   0.000e+00  =   0.000e+00
              K      2.000e-05  +   0.000e+00  =   2.000e-05
             Mg      1.010e-03  +   0.000e+00  =   1.010e-03
             Na      2.000e-05  +   0.000e+00  =   2.000e-05
           O(0)      0.000e+00  +   0.000e+00  =   0.000e+00
          S(-2)      0.000e+00  +   0.000e+00  =   0.000e+00
           S(6)      1.600e-04  +   0.000e+00  =   1.600e-04
              X      0.000e+00  +   0.000e+00  =   0.000e+00
              Z      1.760e-05  +   0.000e+00  =   1.760e-05

Solution 2: Mysse

                         Input          Delta    Input+Delta
             pH      6.610e+00  +   0.000e+00  =   6.610e+00
     Alkalinity      5.175e-03  +   0.000e+00  =   5.175e-03
          C(-4)      0.000e+00  +   0.000e+00  =   0.000e+00
           C(4)      6.870e-03  +   0.000e+00  =   6.870e-03
             Ca      1.128e-02  +   0.000e+00  =   1.128e-02
             Cl      1.785e-02  +   0.000e+00  =   1.785e-02
          Fe(2)      4.000e-07  +   0.000e+00  =   4.000e-07
          Fe(3)      0.000e+00  +   0.000e+00  =   0.000e+00
           H(0)      0.000e+00  +   0.000e+00  =   0.000e+00
              K      2.540e-03  +   0.000e+00  =   2.540e-03
             Mg      4.540e-03  +   0.000e+00  =   4.540e-03
             Na      3.189e-02  +  -3.189e-03  =   2.870e-02
           O(0)      0.000e+00  +   0.000e+00  =   0.000e+00
          S(-2)      2.590e-04  +   0.000e+00  =   2.590e-04
           S(6)      1.986e-02  +   6.860e-05  =   1.993e-02
              X      0.000e+00  +   0.000e+00  =   0.000e+00
              Z      2.330e-03  +   0.000e+00  =   2.330e-03

Solution fractions:                   Minimum        Maximum
   Solution   1      1.000e+00      1.000e+00      1.000e+00
   Solution   2      1.000e+00      1.000e+00      1.000e+00

Phase mole transfers:                 Minimum        Maximum   Formula             (Approximate SI in solution 1, 2 at 336 K,   1 atm)
        Calcite     -5.008e-03     -5.489e-03     -4.527e-03   CaCO3                      (  0.40,  0.32)
       Dolomite      3.530e-03      3.434e-03      3.626e-03   CaMg(CO3)2                 (  1.08,  0.53)
           CH2O      5.180e-04      5.128e-04      5.232e-04   CH2O                       (      ,      )
      Anhydrite      1.093e-02      6.962e-03      1.640e-02   CaSO4Z0.120                ( -7.63, -5.28)
     Anhydrite1      9.101e-03      3.350e-03      1.321e-02   CaSO4Z0.110                ( -7.59, -5.25)
             HX      3.568e-03      2.703e-03      4.286e-03   HX                         (      ,      )
           CaX2     -8.470e-03     -9.093e-03     -7.937e-03   CaX2                       (      ,      )
            NaX      1.337e-02      1.316e-02      1.400e-02   NaX                        (      ,      )
         Halite      1.531e-02      1.510e-02      1.552e-02   NaCl                       ( -9.47, -3.48)
        Sylvite      2.520e-03      2.494e-03      2.546e-03   KCl                        ( -9.47, -4.59)

Redox mole transfers:    
          S(-2)     -2.590e-04

Sum of residuals (epsilons in documentation):         2.478e+00
Sum of delta/uncertainty limit:                       2.478e+00
Maximum fractional error in element concentration:    6.000e-01

Model contains minimum number of phases.
===============================================================================


Summary of inverse modeling:

	Number of models found: 2
	Number of minimal models found: 2
	Number of infeasible sets of phases saved: 26
	Number of calls to cl1: 78
------------------
End of simulation.
------------------

------------------------------------
Reading input data for simulation 7.
------------------------------------

