WARNING: Database file from DATABASE keyword is used; command line argument ignored.
   Input file: opa_col3
  Output file: opa_col3.out
Database file: ../database/phreeqc.dat

------------------
Reading data base.
------------------

	SOLUTION_MASTER_SPECIES
	SOLUTION_SPECIES
	PHASES
	GAS_BINARY_PARAMETERS
	EXCHANGE_MASTER_SPECIES
	EXCHANGE_SPECIES
	SURFACE_MASTER_SPECIES
	SURFACE_SPECIES
	MEAN_GAMMAS
	RATES
	END
------------------------------------
Reading input data for simulation 1.
------------------------------------

	DATABASE ../database/phreeqc.dat
	SELECTED_OUTPUT 101
	    file                 opa_col3_101.sel
	USER_PUNCH 101
	    headings Mu SC
	    start
	10 PUNCH STR_F$(MU, 20, 12)
	20 PUNCH STR_F$(SC, 20, 10)
	    end
	SOLUTION_MASTER_SPECIES # define the tracers...
	 Hto Hto 0 Hto 20
	 Nat Nat+ 0 Nat 22
	 I I- 0 I 126.9
	 Cl_tr Cl_tr- 0 Cl_tr 36.45
	 Cs     Cs+     0 Cs 132.9
	 SOLUTION_SPECIES
	 Hto = Hto
	     log_k 0
	 gamma 1e10 0
	 Dw 2.24e-9
	 Nat+ = Nat+
	   log_k 0
	 gamma 1e10 0
	 Dw 1.33e-9
	 I- = I-
	       log_k 0
	 gamma 1e10 0
	 Dw 1.3e-9
	 erm_ddl 0.3 # Dw 2.0e-9
	 Cl_tr- = Cl_tr-
	 log_k 0
	 gamma 1e10 0
	 dw 1.3e-9
	 erm_ddl 0.6 # Dw 2.03e-9
	 Cs+ = Cs+
	 log_k 0
	 gamma 1e10 0
	 dw 2.07e-9
	 SOLUTION 0-3 # Outer solution with 1 uM tracers...
	 pH 7.09
	 Na 239
	        K 1.54
	         Mg 17.2
	        Ca 25.9
	        Sr 0.500
	 Alkalinity 2.5
	 S(6) 12.6
	     Cl 304 charge
	 Hto 1e-3
	      Nat 1e-3
	       I 1e-3
	 Cl_tr 1e-3
	     Cs 1e-3
	 water 0.8 # NOTE: define actual L water in MCD
	SOLUTION 4-43 # Opalinus Clay porewater...
	 pH 7.09
	 Na 239
	        K 1.54
	         Mg 17.2
	        Ca 25.9
	        Sr 0.500
	 Alkalinity 2.5
	 S(6) 12.6
	     Cl 304 charge
	 water  0.0256
	END
-------------------------------------------
Beginning of initial solution calculations.
-------------------------------------------

Initial solution 0.	

-----------------------------Solution composition------------------------------

	Elements           Molality       Moles

	Alkalinity        2.500e-03   2.000e-03
	Ca                2.590e-02   2.072e-02
	Cl                3.000e-01   2.400e-01  Charge balance
	Cl_tr             1.000e-06   8.000e-07
	Cs                1.000e-06   8.000e-07
	Hto               1.000e-06   8.000e-07
	I                 1.000e-06   8.000e-07
	K                 1.540e-03   1.232e-03
	Mg                1.720e-02   1.376e-02
	Na                2.390e-01   1.912e-01
	Nat               1.000e-06   8.000e-07
	S(6)              1.260e-02   1.008e-02
	Sr                5.000e-04   4.000e-04

----------------------------Description of solution----------------------------

                                       pH  =   7.090    
                                       pe  =   4.000    
      Specific Conductance (µS/cm,  25°C)  = 30242
                          Density (g/cm³)  =   1.01109
                               Volume (L)  =   0.80631
                        Viscosity (mPa s)  =   0.92518
                        Activity of water  =   0.990
                 Ionic strength (mol/kgw)  =   3.653e-01
                       Mass of water (kg)  =   8.000e-01
                    Total carbon (mol/kg)  =   2.759e-03
                       Total CO2 (mol/kg)  =   2.759e-03
                         Temperature (°C)  =  25.00
                  Electrical balance (eq)  =   5.251e-17
 Percent error, 100*(Cat-|An|)/(Cat+|An|)  =   0.00
                               Iterations  =   8
                                  Total H  = 8.881192e+01
                                  Total O  = 4.445169e+01

----------------------------Distribution of species----------------------------

                                               Log       Log       Log    mole V
   Species          Molality    Activity  Molality  Activity     Gamma   cm³/mol

   OH-             1.874e-07   1.233e-07    -6.727    -6.909    -0.182     -3.17
   H+              1.049e-07   8.128e-08    -6.979    -7.090    -0.111      0.00
   H2O             5.551e+01   9.899e-01     1.744    -0.004     0.000     18.07
C(4)          2.759e-03
   HCO3-           2.214e-03   1.582e-03    -2.655    -2.801    -0.146     26.73
   CO2             2.763e-04   2.920e-04    -3.559    -3.535     0.024     34.79
   MgHCO3+         1.296e-04   8.724e-05    -3.887    -4.059    -0.172      5.77
   NaHCO3          1.175e-04   1.334e-04    -3.930    -3.875     0.055     17.66
   CaCO3           9.555e-06   1.039e-05    -5.020    -4.983     0.037    -14.60
   SrHCO3+         4.342e-06   3.083e-06    -5.362    -5.511    -0.149     (0)  
   MgCO3           3.774e-06   4.105e-06    -5.423    -5.387     0.037    -17.09
   CO3-2           3.592e-06   9.127e-07    -5.445    -6.040    -0.595     -1.79
   KHCO3           6.543e-07   7.117e-07    -6.184    -6.148     0.037     21.42
   SrCO3           6.823e-08   7.422e-08    -7.166    -7.129     0.037    -14.13
   (CO2)2          1.312e-09   1.387e-09    -8.882    -8.858     0.024     68.75
   CaHCO3+         1.300e-09   9.402e-10    -8.886    -9.027    -0.141      9.92
Ca            2.590e-02
   Ca+2            2.453e-02   6.779e-03    -1.610    -2.169    -0.558    -16.98
   CaSO4           1.364e-03   1.416e-03    -2.865    -2.849     0.016      7.22
   CaCO3           9.555e-06   1.039e-05    -5.020    -4.983     0.037    -14.60
   CaOH+           1.875e-08   1.370e-08    -7.727    -7.863    -0.136     (0)  
   CaHSO4+         1.320e-09   9.643e-10    -8.880    -9.016    -0.136     (0)  
   CaHCO3+         1.300e-09   9.402e-10    -8.886    -9.027    -0.141      9.92
Cl            3.000e-01
   Cl-             3.000e-01   2.015e-01    -0.523    -0.696    -0.173     18.60
   HCl             3.944e-09   5.642e-09    -8.404    -8.249     0.155     20.36
Cl_tr         1.000e-06
   Cl_tr-          1.000e-06   1.000e-06    -6.000    -6.000    -0.000     (0)  
Cs            1.000e-06
   Cs+             1.000e-06   1.000e-06    -6.000    -6.000    -0.000     (0)  
H(0)          8.564e-26
   H2              4.282e-26   4.677e-26   -25.368   -25.330     0.038     14.99
Hto           1.000e-06
   Hto             1.000e-06   1.000e-06    -6.000    -6.000     0.000     (0)  
I             1.000e-06
   I-              1.000e-06   1.000e-06    -6.000    -6.000    -0.000     (0)  
K             1.540e-03
   K+              1.512e-03   1.007e-03    -2.821    -2.997    -0.176      9.47
   KSO4-           2.755e-05   2.295e-05    -4.560    -4.639    -0.079     31.49
   KHCO3           6.543e-07   7.117e-07    -6.184    -6.148     0.037     21.42
Mg            1.720e-02
   Mg+2            1.548e-02   4.713e-03    -1.810    -2.327    -0.516    -20.70
   MgSO4           1.562e-03   1.848e-03    -2.806    -2.733     0.073     -0.40
   MgHCO3+         1.296e-04   8.724e-05    -3.887    -4.059    -0.172      5.77
   Mg(SO4)2-2      2.874e-05   9.113e-06    -4.542    -5.040    -0.499     46.83
   MgCO3           3.774e-06   4.105e-06    -5.423    -5.387     0.037    -17.09
   MgOH+           2.841e-07   2.084e-07    -6.547    -6.681    -0.135     (0)  
Na            2.390e-01
   Na+             2.358e-01   1.707e-01    -0.628    -0.768    -0.140     -0.75
   NaSO4-          3.118e-03   2.245e-03    -2.506    -2.649    -0.143     20.23
   NaHCO3          1.175e-04   1.334e-04    -3.930    -3.875     0.055     17.66
   Na2SO4          1.734e-07   1.868e-07    -6.761    -6.729     0.032     47.96
Nat           1.000e-06
   Nat+            1.000e-06   1.000e-06    -6.000    -6.000    -0.000     (0)  
O(0)          0.000e+00
   O2              0.000e+00   0.000e+00   -41.748   -41.711     0.037     30.40
S(6)          1.260e-02
   SO4-2           6.437e-03   1.497e-03    -2.191    -2.825    -0.633     16.12
   NaSO4-          3.118e-03   2.245e-03    -2.506    -2.649    -0.143     20.23
   MgSO4           1.562e-03   1.848e-03    -2.806    -2.733     0.073     -0.40
   CaSO4           1.364e-03   1.416e-03    -2.865    -2.849     0.016      7.22
   SrSO4           3.419e-05   3.719e-05    -4.466    -4.430     0.037     24.24
   Mg(SO4)2-2      2.874e-05   9.113e-06    -4.542    -5.040    -0.499     46.83
   KSO4-           2.755e-05   2.295e-05    -4.560    -4.639    -0.079     31.49
   Na2SO4          1.734e-07   1.868e-07    -6.761    -6.729     0.032     47.96
   HSO4-           1.619e-08   1.183e-08    -7.791    -7.927    -0.136     40.79
   CaHSO4+         1.320e-09   9.643e-10    -8.880    -9.016    -0.136     (0)  
Sr            5.000e-04
   Sr+2            4.614e-04   1.274e-04    -3.336    -3.895    -0.559    -16.77
   SrSO4           3.419e-05   3.719e-05    -4.466    -4.430     0.037     24.24
   SrHCO3+         4.342e-06   3.083e-06    -5.362    -5.511    -0.149     (0)  
   SrCO3           6.823e-08   7.422e-08    -7.166    -7.129     0.037    -14.13
   SrOH+           1.136e-10   7.957e-11    -9.945   -10.099    -0.155     (0)  

------------------------------Saturation indices-------------------------------

  Phase               SI** log IAP   log K(298 K,   1 atm)

  Anhydrite        -0.68     -4.99   -4.31  CaSO4
  Aragonite         0.13     -8.21   -8.34  CaCO3
  Arcanite         -6.94     -8.82   -1.88  K2SO4
  Calcite           0.24     -8.21   -8.45  CaCO3
  Celestite        -0.06     -6.72   -6.66  SrSO4
  CO2(g)           -2.07     -3.53   -1.47  CO2
  Dolomite          0.51    -16.57  -17.08  CaMg(CO3)2
  Epsomite         -3.44     -5.18   -1.74  MgSO4:7H2O
  Gypsum           -0.45     -5.00   -4.55  CaSO4:2H2O
  H2(g)           -22.23    -25.33   -3.10  H2
  H2O(g)           -1.51     -0.00    1.50  H2O
  Halite           -3.03     -1.46    1.57  NaCl
  Hexahydrite      -3.61     -5.18   -1.57  MgSO4:6H2O
  Kieserite        -3.99     -5.16   -1.16  MgSO4:H2O
  Mirabilite       -3.70     -4.40   -0.71  Na2SO4:10H2O
  O2(g)           -38.82    -41.71   -2.89  O2
  Strontianite     -0.66     -9.93   -9.27  SrCO3
  Sylvite          -4.59     -3.69    0.90  KCl
  Thenardite       -5.01     -4.36    0.65  Na2SO4

**For a gas, SI = log10(fugacity). Fugacity = pressure * phi / 1 atm.
  For ideal gases, phi = 1.

Initial solution 4.	

-----------------------------Solution composition------------------------------

	Elements           Molality       Moles

	Alkalinity        2.500e-03   6.400e-05
	Ca                2.590e-02   6.630e-04
	Cl                3.000e-01   7.681e-03  Charge balance
	K                 1.540e-03   3.942e-05
	Mg                1.720e-02   4.403e-04
	Na                2.390e-01   6.118e-03
	S(6)              1.260e-02   3.226e-04
	Sr                5.000e-04   1.280e-05

----------------------------Description of solution----------------------------

                                       pH  =   7.090    
                                       pe  =   4.000    
      Specific Conductance (µS/cm,  25°C)  = 30241
                          Density (g/cm³)  =   1.01109
                               Volume (L)  =   0.02580
                        Viscosity (mPa s)  =   0.92518
                        Activity of water  =   0.990
                 Ionic strength (mol/kgw)  =   3.653e-01
                       Mass of water (kg)  =   2.560e-02
                    Total carbon (mol/kg)  =   2.759e-03
                       Total CO2 (mol/kg)  =   2.759e-03
                         Temperature (°C)  =  25.00
                  Electrical balance (eq)  =   1.563e-18
 Percent error, 100*(Cat-|An|)/(Cat+|An|)  =   0.00
                               Iterations  =   8 (16 overall)
                                  Total H  = 2.841981e+00
                                  Total O  = 1.422454e+00

----------------------------Distribution of species----------------------------

                                               Log       Log       Log    mole V
   Species          Molality    Activity  Molality  Activity     Gamma   cm³/mol

   OH-             1.874e-07   1.233e-07    -6.727    -6.909    -0.182     -3.17
   H+              1.049e-07   8.128e-08    -6.979    -7.090    -0.111      0.00
   H2O             5.551e+01   9.899e-01     1.744    -0.004     0.000     18.07
C(4)          2.759e-03
   HCO3-           2.214e-03   1.582e-03    -2.655    -2.801    -0.146     26.73
   CO2             2.763e-04   2.920e-04    -3.559    -3.535     0.024     34.79
   MgHCO3+         1.296e-04   8.724e-05    -3.887    -4.059    -0.172      5.77
   NaHCO3          1.175e-04   1.334e-04    -3.930    -3.875     0.055     17.66
   CaCO3           9.555e-06   1.039e-05    -5.020    -4.983     0.037    -14.60
   SrHCO3+         4.342e-06   3.083e-06    -5.362    -5.511    -0.149     (0)  
   MgCO3           3.774e-06   4.105e-06    -5.423    -5.387     0.037    -17.09
   CO3-2           3.592e-06   9.127e-07    -5.445    -6.040    -0.595     -1.79
   KHCO3           6.543e-07   7.117e-07    -6.184    -6.148     0.037     21.42
   SrCO3           6.823e-08   7.422e-08    -7.166    -7.129     0.037    -14.13
   (CO2)2          1.312e-09   1.387e-09    -8.882    -8.858     0.024     68.75
   CaHCO3+         1.300e-09   9.402e-10    -8.886    -9.027    -0.141      9.92
Ca            2.590e-02
   Ca+2            2.453e-02   6.779e-03    -1.610    -2.169    -0.558    -16.98
   CaSO4           1.364e-03   1.416e-03    -2.865    -2.849     0.016      7.22
   CaCO3           9.555e-06   1.039e-05    -5.020    -4.983     0.037    -14.60
   CaOH+           1.875e-08   1.370e-08    -7.727    -7.863    -0.136     (0)  
   CaHSO4+         1.320e-09   9.643e-10    -8.880    -9.016    -0.136     (0)  
   CaHCO3+         1.300e-09   9.402e-10    -8.886    -9.027    -0.141      9.92
Cl            3.000e-01
   Cl-             3.000e-01   2.015e-01    -0.523    -0.696    -0.173     18.60
   HCl             3.944e-09   5.642e-09    -8.404    -8.249     0.155     20.36
H(0)          8.564e-26
   H2              4.282e-26   4.677e-26   -25.368   -25.330     0.038     14.99
K             1.540e-03
   K+              1.512e-03   1.007e-03    -2.821    -2.997    -0.176      9.47
   KSO4-           2.755e-05   2.295e-05    -4.560    -4.639    -0.079     31.49
   KHCO3           6.543e-07   7.117e-07    -6.184    -6.148     0.037     21.42
Mg            1.720e-02
   Mg+2            1.548e-02   4.713e-03    -1.810    -2.327    -0.516    -20.70
   MgSO4           1.562e-03   1.848e-03    -2.806    -2.733     0.073     -0.40
   MgHCO3+         1.296e-04   8.724e-05    -3.887    -4.059    -0.172      5.77
   Mg(SO4)2-2      2.874e-05   9.113e-06    -4.542    -5.040    -0.499     46.83
   MgCO3           3.774e-06   4.105e-06    -5.423    -5.387     0.037    -17.09
   MgOH+           2.841e-07   2.084e-07    -6.547    -6.681    -0.135     (0)  
Na            2.390e-01
   Na+             2.358e-01   1.707e-01    -0.628    -0.768    -0.140     -0.75
   NaSO4-          3.118e-03   2.245e-03    -2.506    -2.649    -0.143     20.23
   NaHCO3          1.175e-04   1.334e-04    -3.930    -3.875     0.055     17.66
   Na2SO4          1.734e-07   1.868e-07    -6.761    -6.729     0.032     47.96
O(0)          0.000e+00
   O2              0.000e+00   0.000e+00   -41.748   -41.711     0.037     30.40
S(6)          1.260e-02
   SO4-2           6.437e-03   1.497e-03    -2.191    -2.825    -0.633     16.12
   NaSO4-          3.118e-03   2.245e-03    -2.506    -2.649    -0.143     20.23
   MgSO4           1.562e-03   1.848e-03    -2.806    -2.733     0.073     -0.40
   CaSO4           1.364e-03   1.416e-03    -2.865    -2.849     0.016      7.22
   SrSO4           3.419e-05   3.719e-05    -4.466    -4.430     0.037     24.24
   Mg(SO4)2-2      2.874e-05   9.113e-06    -4.542    -5.040    -0.499     46.83
   KSO4-           2.755e-05   2.295e-05    -4.560    -4.639    -0.079     31.49
   Na2SO4          1.734e-07   1.868e-07    -6.761    -6.729     0.032     47.96
   HSO4-           1.619e-08   1.183e-08    -7.791    -7.927    -0.136     40.79
   CaHSO4+         1.320e-09   9.643e-10    -8.880    -9.016    -0.136     (0)  
Sr            5.000e-04
   Sr+2            4.614e-04   1.274e-04    -3.336    -3.895    -0.559    -16.77
   SrSO4           3.419e-05   3.719e-05    -4.466    -4.430     0.037     24.24
   SrHCO3+         4.342e-06   3.083e-06    -5.362    -5.511    -0.149     (0)  
   SrCO3           6.823e-08   7.422e-08    -7.166    -7.129     0.037    -14.13
   SrOH+           1.136e-10   7.957e-11    -9.945   -10.099    -0.155     (0)  

------------------------------Saturation indices-------------------------------

  Phase               SI** log IAP   log K(298 K,   1 atm)

  Anhydrite        -0.68     -4.99   -4.31  CaSO4
  Aragonite         0.13     -8.21   -8.34  CaCO3
  Arcanite         -6.94     -8.82   -1.88  K2SO4
  Calcite           0.24     -8.21   -8.45  CaCO3
  Celestite        -0.06     -6.72   -6.66  SrSO4
  CO2(g)           -2.07     -3.53   -1.47  CO2
  Dolomite          0.51    -16.57  -17.08  CaMg(CO3)2
  Epsomite         -3.44     -5.18   -1.74  MgSO4:7H2O
  Gypsum           -0.45     -5.00   -4.55  CaSO4:2H2O
  H2(g)           -22.23    -25.33   -3.10  H2
  H2O(g)           -1.51     -0.00    1.50  H2O
  Halite           -3.03     -1.46    1.57  NaCl
  Hexahydrite      -3.61     -5.18   -1.57  MgSO4:6H2O
  Kieserite        -3.99     -5.16   -1.16  MgSO4:H2O
  Mirabilite       -3.70     -4.40   -0.71  Na2SO4:10H2O
  O2(g)           -38.82    -41.71   -2.89  O2
  Strontianite     -0.66     -9.93   -9.27  SrCO3
  Sylvite          -4.59     -3.69    0.90  KCl
  Thenardite       -5.01     -4.36    0.65  Na2SO4

**For a gas, SI = log10(fugacity). Fugacity = pressure * phi / 1 atm.
  For ideal gases, phi = 1.

------------------
End of simulation.
------------------

------------------------------------
Reading input data for simulation 2.
------------------------------------

	SURFACE 4-43
	   equilibrate 4
	       Su      0.08    1.00E+05        1
	 donnan        10E-10
	EXCHANGE 4-43
	  equilibrate 4
	       X       0.12
	SURFACE_MASTER_SPECIES
	 Su Su-
	SURFACE_SPECIES
	        Su- = Su-
	      log_k 0
	EXCHANGE_SPECIES
	       Cs+ + X- = CsX
	 log_k 2
	 Nat+ + X- = NatX
	      log_k 0
	END
-------------------------------------------------------
Beginning of initial exchange-composition calculations.
-------------------------------------------------------

Exchange 4.	

X                1.200e-01 mol

	                               Equiv-    Equivalent      Log 
	Species             Moles      alents      Fraction     Gamma

	NaX               4.666e-02   4.666e-02   3.888e-01    -0.140
	CaX2              2.525e-02   5.051e-02   4.209e-01    -0.558
	MgX2              1.005e-02   2.011e-02   1.676e-01    -0.516
	KX                1.500e-03   1.500e-03   1.250e-02    -0.176
	SrX2              6.120e-04   1.224e-03   1.020e-02    -0.559

------------------------------------------------------
Beginning of initial surface-composition calculations.
------------------------------------------------------

Surface 4.	

Diffuse Double Layer Surface-Complexation Model

Su            
	  1.822e-11  Surface + diffuse layer charge, eq
	 -8.000e-02  Surface charge, eq
	 -7.719e-02  sigma, C/m²
	 -4.844e-02  psi, V
	  1.885e+00  -F*psi/RT
	  6.589e+00  exp(-F*psi/RT)
	  1.000e+05  specific area, m²/g
	  1.000e+05  m² for   1.000e+00 g

	Water in diffuse layer: 1.000e-01 kg, 100.0% of total DDL-water.
		      viscosity: 0.00000 mPa s for DDL water.

	Total moles in diffuse layer (excluding water), Donnan calculation.
	Donnan Layer potential, psi_DL = -2.074e-02 V.
	Boltzmann factor, exp(-psi_DL * F / RT) = 2.242e+00 (= c_DL / c_free if z is +1).

	Element       	     Moles
	C             	  1.6962e-04
	Ca            	  1.2461e-02
	Cl            	  1.3385e-02
	H             	  1.4069e-04
	K             	  3.4018e-04
	Mg            	  7.9625e-03
	Na            	  5.3000e-02
	O             	  2.7436e-03
	S             	  5.6556e-04
	Sr            	  2.3624e-04

Su            
	  8.000e-02  moles
	                                   Mole                     Log
	Species               Moles    Fraction    Molality    Molality

	Su-               8.000e-02       1.000   3.125e+00       0.495

------------------
End of simulation.
------------------

------------------------------------
Reading input data for simulation 3.
------------------------------------

	PRINT
	 reset false
WARNING: No cell-lengths were read; length = 1 m assumed.
WARNING: No dispersivities were read; disp = 0 assumed.
WARNING: No porosities were read; used the value 1.60e-01 from -multi_D.

Calculating transport: 1 (mobile) cells, 60 shifts, 3 mixruns...

WARNING: No porosities were read; used the value 1.60e-01 from -multi_D.

Calculating transport: 1 (mobile) cells, 60 shifts, 3 mixruns...

