WARNING: Database file from DATABASE keyword is used; command line argument ignored.
   Input file: org_gas
  Output file: org_gas.out
Database file: ../database/phreeqc.dat

------------------
Reading data base.
------------------

	SOLUTION_MASTER_SPECIES
	SOLUTION_SPECIES
	PHASES
	GAS_BINARY_PARAMETERS
	EXCHANGE_MASTER_SPECIES
	EXCHANGE_SPECIES
	SURFACE_MASTER_SPECIES
	SURFACE_SPECIES
	MEAN_GAMMAS
	RATES
	END
------------------------------------
Reading input data for simulation 1.
------------------------------------

	DATABASE ../database/phreeqc.dat
	SELECTED_OUTPUT 101
	    file                 org_gas_101.sel
	USER_PUNCH 101
	    headings Mu SC
	    start
	10 PUNCH STR_F$(MU, 20, 12)
	20 PUNCH STR_F$(SC, 20, 10)
	    end
	knobs
		logfile
	PRINT
		status false
	SOLUTION 1
	PURE_PHASES 1
		Calcite
		CO2(g)	-1.5
	SAVE solution 2
	END
-------------------------------------------
Beginning of initial solution calculations.
-------------------------------------------

Initial solution 1.	

-----------------------------Solution composition------------------------------

	Elements           Molality       Moles

	Pure water     

----------------------------Description of solution----------------------------

                                       pH  =   7.000    
                                       pe  =   4.000    
      Specific Conductance (µS/cm,  25°C)  = 0
                          Density (g/cm³)  =   0.99704
                               Volume (L)  =   1.00297
                        Viscosity (mPa s)  =   0.89002
                        Activity of water  =   1.000
                 Ionic strength (mol/kgw)  =   1.007e-07
                       Mass of water (kg)  =   1.000e+00
                 Total alkalinity (eq/kg)  =   1.217e-09
                         Temperature (°C)  =  25.00
                  Electrical balance (eq)  =  -1.217e-09
 Percent error, 100*(Cat-|An|)/(Cat+|An|)  =  -0.60
                               Iterations  =   0
                                  Total H  = 1.110124e+02
                                  Total O  = 5.550622e+01

----------------------------Distribution of species----------------------------

                                               Log       Log       Log    mole V
   Species          Molality    Activity  Molality  Activity     Gamma   cm³/mol

   OH-             1.013e-07   1.012e-07    -6.995    -6.995    -0.000     -4.14
   H+              1.001e-07   1.000e-07    -7.000    -7.000    -0.000      0.00
   H2O             5.551e+01   1.000e+00     1.744     0.000     0.000     18.07
H(0)          1.416e-25
   H2              7.079e-26   7.079e-26   -25.150   -25.150     0.000     14.99
O(0)          0.000e+00
   O2              0.000e+00   0.000e+00   -42.063   -42.063     0.000     30.40

------------------------------Saturation indices-------------------------------

  Phase               SI** log IAP   log K(298 K,   1 atm)

  H2(g)           -22.05    -25.15   -3.10  H2
  H2O(g)           -1.50      0.00    1.50  H2O
  O2(g)           -39.17    -42.06   -2.89  O2

**For a gas, SI = log10(fugacity). Fugacity = pressure * phi / 1 atm.
  For ideal gases, phi = 1.

-----------------------------------------
Beginning of batch-reaction calculations.
-----------------------------------------

Reaction step 1.

Using solution 1.	
Using pure phase assemblage 1.	

-------------------------------Phase assemblage--------------------------------

                                                      Moles in assemblage
Phase               SI  log IAP  log K(T, P)   Initial       Final       Delta

CO2(g)           -1.50    -2.97     -1.47    1.000e+01   9.996e+00  -3.563e-03
Calcite           0.00    -8.45     -8.45    1.000e+01   9.998e+00  -2.497e-03

-----------------------------Solution composition------------------------------

	Elements           Molality       Moles

	C                 6.060e-03   6.060e-03
	Ca                2.497e-03   2.497e-03

----------------------------Description of solution----------------------------

                                       pH  =   6.979      Charge balance
                                       pe  =  -1.257      Adjusted to redox equilibrium
      Specific Conductance (µS/cm,  25°C)  = 466
                          Density (g/cm³)  =   0.99738
                               Volume (L)  =   1.00304
                        Viscosity (mPa s)  =   0.89277
                        Activity of water  =   1.000
                 Ionic strength (mol/kgw)  =   7.477e-03
                       Mass of water (kg)  =   1.000e+00
                 Total alkalinity (eq/kg)  =   4.995e-03
                       Total CO2 (mol/kg)  =   6.060e-03
                         Temperature (°C)  =  25.00
                  Electrical balance (eq)  =  -1.240e-09
 Percent error, 100*(Cat-|An|)/(Cat+|An|)  =  -0.00
                               Iterations  =  16
                                  Total H  = 1.110124e+02
                                  Total O  = 5.552083e+01

----------------------------Distribution of species----------------------------

                                               Log       Log       Log    mole V
   Species          Molality    Activity  Molality  Activity     Gamma   cm³/mol

   H+              1.138e-07   1.050e-07    -6.944    -6.979    -0.035      0.00
   OH-             1.057e-07   9.641e-08    -6.976    -7.016    -0.040     -4.05
   H2O             5.551e+01   9.999e-01     1.744    -0.000     0.000     18.07
C(-4)         4.443e-25
   CH4             4.443e-25   4.451e-25   -24.352   -24.352     0.001     35.46
C(4)          6.060e-03
   HCO3-           4.977e-03   4.558e-03    -2.303    -2.341    -0.038     24.67
   CO2             1.075e-03   1.076e-03    -2.969    -2.968     0.000     34.79
   CaCO3           5.979e-06   5.989e-06    -5.223    -5.223     0.001    -14.60
   CO3-2           2.896e-06   2.036e-06    -5.538    -5.691    -0.153     -4.42
   (CO2)2          1.880e-08   1.882e-08    -7.726    -7.725     0.000     68.75
   CaHCO3+         7.630e-10   6.996e-10    -9.117    -9.155    -0.038      9.71
Ca            2.497e-03
   Ca+2            2.491e-03   1.751e-03    -2.604    -2.757    -0.153    -17.97
   CaCO3           5.979e-06   5.989e-06    -5.223    -5.223     0.001    -14.60
   CaOH+           3.031e-09   2.767e-09    -8.518    -8.558    -0.039     (0)  
   CaHCO3+         7.630e-10   6.996e-10    -9.117    -9.155    -0.038      9.71
H(0)          5.091e-15
   H2              2.546e-15   2.550e-15   -14.594   -14.593     0.001     14.99
O(0)          0.000e+00
   O2              0.000e+00   0.000e+00   -63.177   -63.176     0.001     30.40

------------------------------Saturation indices-------------------------------

  Phase               SI** log IAP   log K(298 K,   1 atm)

  Aragonite        -0.11     -8.45   -8.34  CaCO3
  Calcite           0.00     -8.45   -8.45  CaCO3
  CH4(g)          -21.55    -24.35   -2.80  CH4
  CO2(g)           -1.50     -2.97   -1.47  CO2	 Pressure   0.0 atm, phi 1.000
  H2(g)           -11.49    -14.59   -3.10  H2
  H2O(g)           -1.50     -0.00    1.50  H2O
  O2(g)           -60.28    -63.18   -2.89  O2

**For a gas, SI = log10(fugacity). Fugacity = pressure * phi / 1 atm.
  For ideal gases, phi = 1.

------------------
End of simulation.
------------------

------------------------------------
Reading input data for simulation 2.
------------------------------------

	REACTION 1
		(CH2O)15N	1.0
		.1 .2 .4 .8 1 2 4 8 16 32 64 128 mmol
	PURE_PHASES 1
		Calcite 0.0
	GAS_PHASE 2
		pressure 	1.1
		CO2(g)		0.0
		CH4(g)		0.0
		NH3(g)		0.0
	GAS_PHASE 1
		pressure 	1.1
		CO2(g)		0.0
		CH4(g)		0.0
		N2(g)		0.0
		NH3(g)		0.0
	END
------------------
End of simulation.
------------------

------------------------------------
Reading input data for simulation 3.
------------------------------------

	USE solution 1
	USE reaction 1
	USE gas_phase 1
	END
-----------------------------------------
Beginning of batch-reaction calculations.
-----------------------------------------

Reaction step 1.

Using solution 1.	
Using gas phase 1.	
Using reaction 1.	

Reaction 1.	

	  1.000e-04 moles of the following reaction have been added:

	                 Relative
	Reactant            moles

	(CH2O)15N            1.00000

	                 Relative
	Element             moles
	C                   15.00000
	H                   30.00000
	N                    1.00000
	O                   15.00000

----------------Fixed-pressure gas phase 1 dissolved completely----------------

-----------------------------Solution composition------------------------------

	Elements           Molality       Moles

	C                 1.500e-03   1.500e-03
	N                 1.000e-04   1.000e-04

----------------------------Description of solution----------------------------

                                       pH  =   5.524      Charge balance
                                       pe  =  -2.478      Adjusted to redox equilibrium
      Specific Conductance (µS/cm,  25°C)  = 12
                          Density (g/cm³)  =   0.99704
                               Volume (L)  =   1.00301
                        Viscosity (mPa s)  =   0.89013
                        Activity of water  =   1.000
                 Ionic strength (mol/kgw)  =   1.030e-04
                       Mass of water (kg)  =   1.000e+00
                 Total alkalinity (eq/kg)  =   1.000e-04
                       Total CO2 (mol/kg)  =   7.875e-04
                         Temperature (°C)  =  25.00
                           Pressure (atm)  =  1.10
                  Electrical balance (eq)  =  -1.216e-09
 Percent error, 100*(Cat-|An|)/(Cat+|An|)  =  -0.00
                               Iterations  =  15
                                  Total H  = 1.110154e+02
                                  Total O  = 5.550772e+01

----------------------------Distribution of species----------------------------

                                               Log       Log       Log    mole V
   Species          Molality    Activity  Molality  Activity     Gamma   cm³/mol

   H+              3.026e-06   2.991e-06    -5.519    -5.524    -0.005      0.00
   OH-             3.425e-09   3.384e-09    -8.465    -8.471    -0.005     -4.13
   H2O             5.551e+01   1.000e+00     1.744    -0.000     0.000     18.07
C(-4)         7.125e-04
   CH4             7.125e-04   7.125e-04    -3.147    -3.147     0.000     35.46
C(4)          7.875e-04
   CO2             6.845e-04   6.845e-04    -3.165    -3.165     0.000     34.79
   HCO3-           1.030e-04   1.018e-04    -3.987    -3.992    -0.005     24.53
   (CO2)2          7.617e-09   7.617e-09    -8.118    -8.118     0.000     68.75
   CO3-2           1.673e-09   1.597e-09    -8.776    -8.797    -0.020     -4.77
H(0)          1.142e-09
   H2              5.712e-10   5.712e-10    -9.243    -9.243     0.000     14.99
N(-3)         1.000e-04
   NH4+            9.998e-05   9.881e-05    -4.000    -4.005    -0.005     17.87
   NH3             1.883e-08   1.883e-08    -7.725    -7.725     0.000     24.42
N(0)          3.505e-10
   N2              1.752e-10   1.752e-10    -9.756    -9.756     0.000     29.29
N(3)          0.000e+00
   NO2-            0.000e+00   0.000e+00   -65.179   -65.184    -0.005     24.95
N(5)          0.000e+00
   NO3-            0.000e+00   0.000e+00   -87.656   -87.661    -0.005     29.47
O(0)          0.000e+00
   O2              0.000e+00   0.000e+00   -73.876   -73.876     0.000     30.40

------------------------------Saturation indices-------------------------------

  Phase               SI** log IAP   log K(298 K,   1 atm)

  CH4(g)           -0.35     -3.15   -2.80  CH4
  CO2(g)           -1.70     -3.16   -1.47  CO2
  H2(g)            -6.14     -9.24   -3.10  H2
  H2O(g)           -1.50     -0.00    1.50  H2O
  N2(g)            -6.58     -9.76   -3.18  N2
  NH3(g)           -9.52     -7.73    1.80  NH3
  O2(g)           -70.98    -73.88   -2.89  O2

**For a gas, SI = log10(fugacity). Fugacity = pressure * phi / 1 atm.
  For ideal gases, phi = 1.

Reaction step 2.

Using solution 1.	
Using gas phase 1.	
Using reaction 1.	

Reaction 1.	

	  2.000e-04 moles of the following reaction have been added:

	                 Relative
	Reactant            moles

	(CH2O)15N            1.00000

	                 Relative
	Element             moles
	C                   15.00000
	H                   30.00000
	N                    1.00000
	O                   15.00000

----------------Fixed-pressure gas phase 1 dissolved completely----------------

-----------------------------Solution composition------------------------------

	Elements           Molality       Moles

	C                 3.000e-03   3.000e-03
	N                 2.000e-04   2.000e-04

----------------------------Description of solution----------------------------

                                       pH  =   5.515      Charge balance
                                       pe  =  -2.468      Adjusted to redox equilibrium
      Specific Conductance (µS/cm,  25°C)  = 24
                          Density (g/cm³)  =   0.99704
                               Volume (L)  =   1.00306
                        Viscosity (mPa s)  =   0.89021
                        Activity of water  =   1.000
                 Ionic strength (mol/kgw)  =   2.031e-04
                       Mass of water (kg)  =   1.000e+00
                 Total alkalinity (eq/kg)  =   2.000e-04
                       Total CO2 (mol/kg)  =   1.575e-03
                         Temperature (°C)  =  25.00
                           Pressure (atm)  =  1.10
                  Electrical balance (eq)  =  -1.217e-09
 Percent error, 100*(Cat-|An|)/(Cat+|An|)  =  -0.00
                               Iterations  =  15
                                  Total H  = 1.110184e+02
                                  Total O  = 5.550922e+01

----------------------------Distribution of species----------------------------

                                               Log       Log       Log    mole V
   Species          Molality    Activity  Molality  Activity     Gamma   cm³/mol

   H+              3.104e-06   3.055e-06    -5.508    -5.515    -0.007      0.00
   OH-             3.369e-09   3.314e-09    -8.473    -8.480    -0.007     -4.12
   H2O             5.551e+01   9.999e-01     1.744    -0.000     0.000     18.07
C(-4)         1.425e-03
   CH4             1.425e-03   1.425e-03    -2.846    -2.846     0.000     35.46
C(4)          1.575e-03
   CO2             1.372e-03   1.372e-03    -2.863    -2.863     0.000     34.79
   HCO3-           2.031e-04   1.998e-04    -3.692    -3.699    -0.007     24.53
   (CO2)2          3.060e-08   3.060e-08    -7.514    -7.514     0.000     68.75
   CO3-2           3.274e-09   3.067e-09    -8.485    -8.513    -0.028     -4.75
H(0)          1.142e-09
   H2              5.708e-10   5.709e-10    -9.243    -9.243     0.000     14.99
N(-3)         2.000e-04
   NH4+            2.000e-04   1.967e-04    -3.699    -3.706    -0.007     17.88
   NH3             3.669e-08   3.669e-08    -7.435    -7.435     0.000     24.42
N(0)          1.333e-09
   N2              6.667e-10   6.667e-10    -9.176    -9.176     0.000     29.29
N(3)          0.000e+00
   NO2-            0.000e+00   0.000e+00   -64.896   -64.903    -0.007     24.95
N(5)          0.000e+00
   NO3-            0.000e+00   0.000e+00   -87.372   -87.379    -0.007     29.47
O(0)          0.000e+00
   O2              0.000e+00   0.000e+00   -73.876   -73.876     0.000     30.40

------------------------------Saturation indices-------------------------------

  Phase               SI** log IAP   log K(298 K,   1 atm)

  CH4(g)           -0.04     -2.85   -2.80  CH4
  CO2(g)           -1.39     -2.86   -1.47  CO2
  H2(g)            -6.14     -9.24   -3.10  H2
  H2O(g)           -1.50     -0.00    1.50  H2O
  N2(g)            -6.00     -9.18   -3.18  N2
  NH3(g)           -9.23     -7.44    1.80  NH3
  O2(g)           -70.98    -73.88   -2.89  O2

**For a gas, SI = log10(fugacity). Fugacity = pressure * phi / 1 atm.
  For ideal gases, phi = 1.

Reaction step 3.

Using solution 1.	
Using gas phase 1.	
Using reaction 1.	

Reaction 1.	

	  4.000e-04 moles of the following reaction have been added:

	                 Relative
	Reactant            moles

	(CH2O)15N            1.00000

	                 Relative
	Element             moles
	C                   15.00000
	H                   30.00000
	N                    1.00000
	O                   15.00000

-----------------------------------Gas phase-----------------------------------

Total pressure:  1.10      atmospheres          (Peng-Robinson calculation)
    Gas volume:   2.97e-02 liters
  Molar volume:   2.22e+01 liters/mole
   P * Vm / RT:  0.99730  (Compressibility Factor Z) 

                                                        Moles in gas
                                            ----------------------------------
Component         log P           P    phi     Initial       Final       Delta

CH4(g)             0.01   1.022e+00  0.998   0.000e+00   1.242e-03   1.242e-03
CO2(g)            -1.11   7.837e-02  0.994   0.000e+00   9.530e-05   9.530e-05
N2(g)             -5.21   6.146e-06  1.000   0.000e+00   7.473e-09   7.473e-09
NH3(g)            -8.92   1.198e-09  0.992   0.000e+00   1.457e-12   1.457e-12

-----------------------------Solution composition------------------------------

	Elements           Molality       Moles

	C                 4.663e-03   4.663e-03
	N                 4.000e-04   4.000e-04

----------------------------Description of solution----------------------------

                                       pH  =   5.524      Charge balance
                                       pe  =  -2.448      Adjusted to redox equilibrium
      Specific Conductance (µS/cm,  25°C)  = 47
                          Density (g/cm³)  =   0.99706
                               Volume (L)  =   1.00311
                        Viscosity (mPa s)  =   0.89034
                        Activity of water  =   1.000
                 Ionic strength (mol/kgw)  =   4.030e-04
                       Mass of water (kg)  =   1.000e+00
                 Total alkalinity (eq/kg)  =   4.000e-04
                       Total CO2 (mol/kg)  =   3.055e-03
                         Temperature (°C)  =  25.00
                           Pressure (atm)  =  1.10
                  Electrical balance (eq)  =  -1.217e-09
 Percent error, 100*(Cat-|An|)/(Cat+|An|)  =  -0.00
                               Iterations  =  22
                                  Total H  = 1.110195e+02
                                  Total O  = 5.551203e+01

----------------------------Distribution of species----------------------------

                                               Log       Log       Log    mole V
   Species          Molality    Activity  Molality  Activity     Gamma   cm³/mol

   H+              3.062e-06   2.994e-06    -5.514    -5.524    -0.010      0.00
   OH-             3.459e-09   3.380e-09    -8.461    -8.471    -0.010     -4.12
   H2O             5.551e+01   9.999e-01     1.744    -0.000     0.000     18.07
C(-4)         1.608e-03
   CH4             1.608e-03   1.608e-03    -2.794    -2.794     0.000     35.46
C(4)          3.055e-03
   CO2             2.652e-03   2.652e-03    -2.577    -2.576     0.000     34.79
   HCO3-           4.030e-04   3.939e-04    -3.395    -3.405    -0.010     24.54
   (CO2)2          1.143e-07   1.143e-07    -6.942    -6.942     0.000     68.75
   CO3-2           6.758e-09   6.170e-09    -8.170    -8.210    -0.040     -4.72
H(0)          9.979e-10
   H2              4.989e-10   4.990e-10    -9.302    -9.302     0.000     14.99
N(-3)         4.000e-04
   NH4+            3.999e-04   3.907e-04    -3.398    -3.408    -0.010     17.88
   NH3             7.436e-08   7.436e-08    -7.129    -7.129     0.000     24.42
N(0)          8.200e-09
   N2              4.100e-09   4.100e-09    -8.387    -8.387     0.000     29.29
N(3)          0.000e+00
   NO2-            0.000e+00   0.000e+00   -64.402   -64.412    -0.010     24.96
N(5)          0.000e+00
   NO3-            0.000e+00   0.000e+00   -86.820   -86.830    -0.010     29.48
O(0)          0.000e+00
   O2              0.000e+00   0.000e+00   -73.759   -73.759     0.000     30.40

------------------------------Saturation indices-------------------------------

  Phase               SI** log IAP   log K(298 K,   1 atm)

  CH4(g)            0.01     -2.79   -2.80  CH4	 Pressure   1.0 atm, phi 0.998
  CO2(g)           -1.11     -2.58   -1.47  CO2	 Pressure   0.1 atm, phi 0.994
  H2(g)            -6.20     -9.30   -3.10  H2
  H2O(g)           -1.50     -0.00    1.50  H2O
  N2(g)            -5.21     -8.39   -3.18  N2	 Pressure   0.0 atm, phi 1.000
  NH3(g)           -8.92     -7.13    1.80  NH3	 Pressure   0.0 atm, phi 0.992
  O2(g)           -70.87    -73.76   -2.89  O2

**For a gas, SI = log10(fugacity). Fugacity = pressure * phi / 1 atm.
  For ideal gases, phi = 1.

Reaction step 4.

Using solution 1.	
Using gas phase 1.	
Using reaction 1.	

Reaction 1.	

	  8.000e-04 moles of the following reaction have been added:

	                 Relative
	Reactant            moles

	(CH2O)15N            1.00000

	                 Relative
	Element             moles
	C                   15.00000
	H                   30.00000
	N                    1.00000
	O                   15.00000

-----------------------------------Gas phase-----------------------------------

Total pressure:  1.10      atmospheres          (Peng-Robinson calculation)
    Gas volume:   1.07e-01 liters
  Molar volume:   2.22e+01 liters/mole
   P * Vm / RT:  0.99711  (Compressibility Factor Z) 

                                                        Moles in gas
                                            ----------------------------------
Component         log P           P    phi     Initial       Final       Delta

CH4(g)            -0.02   9.561e-01  0.998   0.000e+00   4.196e-03   4.196e-03
CO2(g)            -0.84   1.438e-01  0.994   0.000e+00   6.312e-04   6.312e-04
N2(g)             -4.34   4.618e-05  1.000   0.000e+00   2.027e-07   2.027e-07
NH3(g)            -8.59   2.552e-09  0.992   0.000e+00   1.120e-11   1.120e-11

-----------------------------Solution composition------------------------------

	Elements           Molality       Moles

	C                 7.173e-03   7.173e-03
	N                 7.996e-04   7.996e-04

----------------------------Description of solution----------------------------

                                       pH  =   5.555      Charge balance
                                       pe  =  -2.443      Adjusted to redox equilibrium
      Specific Conductance (µS/cm,  25°C)  = 93
                          Density (g/cm³)  =   0.99709
                               Volume (L)  =   1.00319
                        Viscosity (mPa s)  =   0.89056
                        Activity of water  =   1.000
                 Ionic strength (mol/kgw)  =   8.023e-04
                       Mass of water (kg)  =   1.000e+00
                 Total alkalinity (eq/kg)  =   7.996e-04
                       Total CO2 (mol/kg)  =   5.669e-03
                         Temperature (°C)  =  25.00
                           Pressure (atm)  =  1.10
                  Electrical balance (eq)  =  -1.217e-09
 Percent error, 100*(Cat-|An|)/(Cat+|An|)  =  -0.00
                               Iterations  =  21
                                  Total H  = 1.110197e+02
                                  Total O  = 5.551695e+01

----------------------------Distribution of species----------------------------

                                               Log       Log       Log    mole V
   Species          Molality    Activity  Molality  Activity     Gamma   cm³/mol

   H+              2.871e-06   2.785e-06    -5.542    -5.555    -0.013      0.00
   OH-             3.754e-09   3.635e-09    -8.426    -8.440    -0.014     -4.11
   H2O             5.551e+01   9.999e-01     1.744    -0.000     0.000     18.07
C(-4)         1.505e-03
   CH4             1.505e-03   1.505e-03    -2.823    -2.822     0.000     35.46
C(4)          5.669e-03
   CO2             4.866e-03   4.866e-03    -2.313    -2.313     0.000     34.79
   HCO3-           8.022e-04   7.772e-04    -3.096    -3.109    -0.014     24.55
   (CO2)2          3.849e-07   3.850e-07    -6.415    -6.415     0.000     68.75
   CO3-2           1.486e-08   1.309e-08    -7.828    -7.883    -0.055     -4.69
H(0)          8.432e-10
   H2              4.216e-10   4.217e-10    -9.375    -9.375     0.000     14.99
N(-3)         7.996e-04
   NH4+            7.994e-04   7.738e-04    -3.097    -3.111    -0.014     17.89
   NH3             1.583e-07   1.584e-07    -6.800    -6.800     0.000     24.42
N(0)          6.162e-08
   N2              3.081e-08   3.082e-08    -7.511    -7.511     0.000     29.29
N(3)          0.000e+00
   NO2-            0.000e+00   0.000e+00   -63.819   -63.833    -0.014     24.96
N(5)          0.000e+00
   NO3-            0.000e+00   0.000e+00   -86.164   -86.178    -0.014     29.49
O(0)          0.000e+00
   O2              0.000e+00   0.000e+00   -73.613   -73.613     0.000     30.40

------------------------------Saturation indices-------------------------------

  Phase               SI** log IAP   log K(298 K,   1 atm)

  CH4(g)           -0.02     -2.82   -2.80  CH4	 Pressure   1.0 atm, phi 0.998
  CO2(g)           -0.84     -2.31   -1.47  CO2	 Pressure   0.1 atm, phi 0.994
  H2(g)            -6.28     -9.38   -3.10  H2
  H2O(g)           -1.50     -0.00    1.50  H2O
  N2(g)            -4.34     -7.51   -3.18  N2	 Pressure   0.0 atm, phi 1.000
  NH3(g)           -8.60     -6.80    1.80  NH3	 Pressure   0.0 atm, phi 0.992
  O2(g)           -70.72    -73.61   -2.89  O2

**For a gas, SI = log10(fugacity). Fugacity = pressure * phi / 1 atm.
  For ideal gases, phi = 1.

Reaction step 5.

Using solution 1.	
Using gas phase 1.	
Using reaction 1.	

Reaction 1.	

	  1.000e-03 moles of the following reaction have been added:

	                 Relative
	Reactant            moles

	(CH2O)15N            1.00000

	                 Relative
	Element             moles
	C                   15.00000
	H                   30.00000
	N                    1.00000
	O                   15.00000

-----------------------------------Gas phase-----------------------------------

Total pressure:  1.10      atmospheres          (Peng-Robinson calculation)
    Gas volume:   1.49e-01 liters
  Molar volume:   2.22e+01 liters/mole
   P * Vm / RT:  0.99703  (Compressibility Factor Z) 

                                                        Moles in gas
                                            ----------------------------------
Component         log P           P    phi     Initial       Final       Delta

CH4(g)            -0.03   9.278e-01  0.998   0.000e+00   5.665e-03   5.665e-03
CO2(g)            -0.76   1.721e-01  0.994   0.000e+00   1.051e-03   1.051e-03
N2(g)             -4.04   9.046e-05  1.000   0.000e+00   5.524e-07   5.524e-07
NH3(g)            -8.48   3.302e-09  0.992   0.000e+00   2.016e-11   2.016e-11

-----------------------------Solution composition------------------------------

	Elements           Molality       Moles

	C                 8.284e-03   8.284e-03
	N                 9.989e-04   9.989e-04

----------------------------Description of solution----------------------------

                                       pH  =   5.572      Charge balance
                                       pe  =  -2.448      Adjusted to redox equilibrium
      Specific Conductance (µS/cm,  25°C)  = 116
                          Density (g/cm³)  =   0.99711
                               Volume (L)  =   1.00323
                        Viscosity (mPa s)  =   0.89066
                        Activity of water  =   1.000
                 Ionic strength (mol/kgw)  =   1.001e-03
                       Mass of water (kg)  =   1.000e+00
                 Total alkalinity (eq/kg)  =   9.988e-04
                       Total CO2 (mol/kg)  =   6.824e-03
                         Temperature (°C)  =  25.00
                           Pressure (atm)  =  1.10
                  Electrical balance (eq)  =  -1.218e-09
 Percent error, 100*(Cat-|An|)/(Cat+|An|)  =  -0.00
                               Iterations  =  21
                                  Total H  = 1.110198e+02
                                  Total O  = 5.551912e+01

----------------------------Distribution of species----------------------------

                                               Log       Log       Log    mole V
   Species          Molality    Activity  Molality  Activity     Gamma   cm³/mol

   H+              2.771e-06   2.679e-06    -5.557    -5.572    -0.015      0.00
   OH-             3.916e-09   3.778e-09    -8.407    -8.423    -0.016     -4.11
   H2O             5.551e+01   9.998e-01     1.744    -0.000     0.000     18.07
C(-4)         1.460e-03
   CH4             1.460e-03   1.460e-03    -2.836    -2.836     0.000     35.46
C(4)          6.824e-03
   CO2             5.821e-03   5.822e-03    -2.235    -2.235     0.000     34.79
   HCO3-           1.001e-03   9.667e-04    -2.999    -3.015    -0.015     24.56
   (CO2)2          5.510e-07   5.511e-07    -6.259    -6.259     0.000     68.75
   CO3-2           1.949e-08   1.693e-08    -7.710    -7.771    -0.061     -4.67
H(0)          8.001e-10
   H2              4.001e-10   4.002e-10    -9.398    -9.398     0.000     14.99
N(-3)         9.988e-04
   NH4+            9.986e-04   9.631e-04    -3.001    -3.016    -0.016     17.89
   NH3             2.048e-07   2.049e-07    -6.689    -6.688     0.000     24.42
N(0)          1.207e-07
   N2              6.035e-08   6.036e-08    -7.219    -7.219     0.000     29.29
N(3)          0.000e+00
   NO2-            0.000e+00   0.000e+00   -63.620   -63.636    -0.016     24.97
N(5)          0.000e+00
   NO3-            0.000e+00   0.000e+00   -85.943   -85.958    -0.016     29.49
O(0)          0.000e+00
   O2              0.000e+00   0.000e+00   -73.567   -73.567     0.000     30.40

------------------------------Saturation indices-------------------------------

  Phase               SI** log IAP   log K(298 K,   1 atm)

  CH4(g)           -0.03     -2.84   -2.80  CH4	 Pressure   0.9 atm, phi 0.998
  CO2(g)           -0.77     -2.23   -1.47  CO2	 Pressure   0.2 atm, phi 0.994
  H2(g)            -6.30     -9.40   -3.10  H2
  H2O(g)           -1.50     -0.00    1.50  H2O
  N2(g)            -4.04     -7.22   -3.18  N2	 Pressure   0.0 atm, phi 1.000
  NH3(g)           -8.48     -6.69    1.80  NH3	 Pressure   0.0 atm, phi 0.992
  O2(g)           -70.67    -73.57   -2.89  O2

**For a gas, SI = log10(fugacity). Fugacity = pressure * phi / 1 atm.
  For ideal gases, phi = 1.

Reaction step 6.

Using solution 1.	
Using gas phase 1.	
Using reaction 1.	

Reaction 1.	

	  2.000e-03 moles of the following reaction have been added:

	                 Relative
	Reactant            moles

	(CH2O)15N            1.00000

	                 Relative
	Element             moles
	C                   15.00000
	H                   30.00000
	N                    1.00000
	O                   15.00000

-----------------------------------Gas phase-----------------------------------

Total pressure:  1.10      atmospheres          (Peng-Robinson calculation)
    Gas volume:   3.85e-01 liters
  Molar volume:   2.22e+01 liters/mole
   P * Vm / RT:  0.99672  (Compressibility Factor Z) 

                                                        Moles in gas
                                            ----------------------------------
Component         log P           P    phi     Initial       Final       Delta

CH4(g)            -0.09   8.217e-01  0.998   0.000e+00   1.297e-02   1.297e-02
CO2(g)            -0.56   2.775e-01  0.994   0.000e+00   4.379e-03   4.379e-03
N2(g)             -3.10   7.859e-04  1.000   0.000e+00   1.240e-05   1.240e-05
NH3(g)            -8.11   7.775e-09  0.992   0.000e+00   1.227e-10   1.227e-10

-----------------------------Solution composition------------------------------

	Elements           Molality       Moles

	C                 1.266e-02   1.265e-02
	N                 1.975e-03   1.975e-03

----------------------------Description of solution----------------------------

                                       pH  =   5.654      Charge balance
                                       pe  =  -2.498      Adjusted to redox equilibrium
      Specific Conductance (µS/cm,  25°C)  = 226
                          Density (g/cm³)  =   0.99718
                               Volume (L)  =   1.00336
                        Viscosity (mPa s)  =   0.89102
                        Activity of water  =   1.000
                 Ionic strength (mol/kgw)  =   1.976e-03
                       Mass of water (kg)  =   9.999e-01
                 Total alkalinity (eq/kg)  =   1.974e-03
                       Total CO2 (mol/kg)  =   1.136e-02
                         Temperature (°C)  =  25.00
                           Pressure (atm)  =  1.10
                  Electrical balance (eq)  =  -1.217e-09
 Percent error, 100*(Cat-|An|)/(Cat+|An|)  =  -0.00
                               Iterations  =  22
                                  Total H  = 1.110206e+02
                                  Total O  = 5.552746e+01

----------------------------Distribution of species----------------------------

                                               Log       Log       Log    mole V
   Species          Molality    Activity  Molality  Activity     Gamma   cm³/mol

   H+              2.322e-06   2.217e-06    -5.634    -5.654    -0.020      0.00
   OH-             4.797e-09   4.565e-09    -8.319    -8.341    -0.022     -4.09
   H2O             5.551e+01   9.998e-01     1.744    -0.000     0.000     18.07
C(-4)         1.293e-03
   CH4             1.293e-03   1.293e-03    -2.888    -2.888     0.000     35.46
C(4)          1.136e-02
   CO2             9.384e-03   9.386e-03    -2.028    -2.028     0.000     34.79
   HCO3-           1.976e-03   1.883e-03    -2.704    -2.725    -0.021     24.58
   (CO2)2          1.432e-06   1.432e-06    -5.844    -5.844     0.000     68.75
   CO3-2           4.834e-08   3.983e-08    -7.316    -7.400    -0.084     -4.61
H(0)          6.887e-10
   H2              3.443e-10   3.445e-10    -9.463    -9.463     0.000     14.99
N(-3)         1.974e-03
   NH4+            1.974e-03   1.877e-03    -2.705    -2.727    -0.022     17.91
   NH3             4.822e-07   4.824e-07    -6.317    -6.317     0.000     24.42
N(0)          1.048e-06
   N2              5.242e-07   5.244e-07    -6.281    -6.280     0.000     29.29
N(3)          0.000e+00
   NO2-            0.000e+00   0.000e+00   -62.965   -62.987    -0.022     24.98
N(5)          0.000e+00
   NO3-            0.000e+00   0.000e+00   -85.222   -85.244    -0.022     29.50
O(0)          0.000e+00
   O2              0.000e+00   0.000e+00   -73.437   -73.437     0.000     30.40

------------------------------Saturation indices-------------------------------

  Phase               SI** log IAP   log K(298 K,   1 atm)

  CH4(g)           -0.09     -2.89   -2.80  CH4	 Pressure   0.8 atm, phi 0.998
  CO2(g)           -0.56     -2.03   -1.47  CO2	 Pressure   0.3 atm, phi 0.994
  H2(g)            -6.36     -9.46   -3.10  H2
  H2O(g)           -1.50     -0.00    1.50  H2O
  N2(g)            -3.10     -6.28   -3.18  N2	 Pressure   0.0 atm, phi 1.000
  NH3(g)           -8.11     -6.32    1.80  NH3	 Pressure   0.0 atm, phi 0.992
  O2(g)           -70.54    -73.44   -2.89  O2

**For a gas, SI = log10(fugacity). Fugacity = pressure * phi / 1 atm.
  For ideal gases, phi = 1.

Reaction step 7.

Using solution 1.	
Using gas phase 1.	
Using reaction 1.	

Reaction 1.	

	  4.000e-03 moles of the following reaction have been added:

	                 Relative
	Reactant            moles

	(CH2O)15N            1.00000

	                 Relative
	Element             moles
	C                   15.00000
	H                   30.00000
	N                    1.00000
	O                   15.00000

-----------------------------------Gas phase-----------------------------------

Total pressure:  1.10      atmospheres          (Peng-Robinson calculation)
    Gas volume:   9.44e-01 liters
  Molar volume:   2.22e+01 liters/mole
   P * Vm / RT:  0.99641  (Compressibility Factor Z) 

                                                        Moles in gas
                                            ----------------------------------
Component         log P           P    phi     Initial       Final       Delta

CH4(g)            -0.15   7.113e-01  0.998   0.000e+00   2.755e-02   2.755e-02
CO2(g)            -0.42   3.829e-01  0.994   0.000e+00   1.483e-02   1.483e-02
N2(g)             -2.24   5.734e-03  1.000   0.000e+00   2.221e-04   2.221e-04
NH3(g)            -7.75   1.763e-08  0.992   0.000e+00   6.830e-10   6.830e-10

-----------------------------Solution composition------------------------------

	Elements           Molality       Moles

	C                 1.762e-02   1.762e-02
	N                 3.556e-03   3.556e-03

----------------------------Description of solution----------------------------

                                       pH  =   5.762      Charge balance
                                       pe  =  -2.581      Adjusted to redox equilibrium
      Specific Conductance (µS/cm,  25°C)  = 401
                          Density (g/cm³)  =   0.99728
                               Volume (L)  =   1.00349
                        Viscosity (mPa s)  =   0.89143
                        Activity of water  =   1.000
                 Ionic strength (mol/kgw)  =   3.549e-03
                       Mass of water (kg)  =   9.999e-01
                 Total alkalinity (eq/kg)  =   3.549e-03
                       Total CO2 (mol/kg)  =   1.650e-02
                         Temperature (°C)  =  25.00
                           Pressure (atm)  =  1.10
                  Electrical balance (eq)  =  -1.217e-09
 Percent error, 100*(Cat-|An|)/(Cat+|An|)  =  -0.00
                               Iterations  =  22
                                  Total H  = 1.110222e+02
                                  Total O  = 5.553655e+01

----------------------------Distribution of species----------------------------

                                               Log       Log       Log    mole V
   Species          Molality    Activity  Molality  Activity     Gamma   cm³/mol

   H+              1.835e-06   1.729e-06    -5.736    -5.762    -0.026      0.00
   OH-             6.249e-09   5.853e-09    -8.204    -8.233    -0.028     -4.08
   H2O             5.551e+01   9.996e-01     1.744    -0.000     0.000     18.07
C(-4)         1.119e-03
   CH4             1.119e-03   1.120e-03    -2.951    -2.951     0.000     35.46
C(4)          1.650e-02
   CO2             1.295e-02   1.295e-02    -1.888    -1.888     0.000     34.79
   HCO3-           3.549e-03   3.332e-03    -2.450    -2.477    -0.027     24.61
   (CO2)2          2.726e-06   2.728e-06    -5.564    -5.564     0.000     68.75
   CO3-2           1.164e-07   9.039e-08    -6.934    -7.044    -0.110     -4.54
H(0)          6.126e-10
   H2              3.063e-10   3.066e-10    -9.514    -9.513     0.000     14.99
N(-3)         3.549e-03
   NH4+            3.548e-03   3.319e-03    -2.450    -2.479    -0.029     17.92
   NH3             1.093e-06   1.094e-06    -5.961    -5.961     0.000     24.42
N(0)          7.647e-06
   N2              3.823e-06   3.827e-06    -5.418    -5.417     0.000     29.29
N(3)          0.000e+00
   NO2-            0.000e+00   0.000e+00   -62.343   -62.371    -0.029     24.99
N(5)          0.000e+00
   NO3-            0.000e+00   0.000e+00   -84.549   -84.578    -0.029     29.52
O(0)          0.000e+00
   O2              0.000e+00   0.000e+00   -73.336   -73.336     0.000     30.40

------------------------------Saturation indices-------------------------------

  Phase               SI** log IAP   log K(298 K,   1 atm)

  CH4(g)           -0.15     -2.95   -2.80  CH4	 Pressure   0.7 atm, phi 0.998
  CO2(g)           -0.42     -1.89   -1.47  CO2	 Pressure   0.4 atm, phi 0.994
  H2(g)            -6.41     -9.51   -3.10  H2
  H2O(g)           -1.50     -0.00    1.50  H2O
  N2(g)            -2.24     -5.42   -3.18  N2	 Pressure   0.0 atm, phi 1.000
  NH3(g)           -7.76     -5.96    1.80  NH3	 Pressure   0.0 atm, phi 0.992
  O2(g)           -70.44    -73.34   -2.89  O2

**For a gas, SI = log10(fugacity). Fugacity = pressure * phi / 1 atm.
  For ideal gases, phi = 1.

Reaction step 8.

Using solution 1.	
Using gas phase 1.	
Using reaction 1.	

Reaction 1.	

	  8.000e-03 moles of the following reaction have been added:

	                 Relative
	Reactant            moles

	(CH2O)15N            1.00000

	                 Relative
	Element             moles
	C                   15.00000
	H                   30.00000
	N                    1.00000
	O                   15.00000

-----------------------------------Gas phase-----------------------------------

Total pressure:  1.10      atmospheres          (Peng-Robinson calculation)
    Gas volume:   2.22e+00 liters
  Molar volume:   2.22e+01 liters/mole
   P * Vm / RT:  0.99621  (Compressibility Factor Z) 

                                                        Moles in gas
                                            ----------------------------------
Component         log P           P    phi     Initial       Final       Delta

CH4(g)            -0.20   6.272e-01  0.998   0.000e+00   5.719e-02   5.719e-02
CO2(g)            -0.34   4.557e-01  0.994   0.000e+00   4.156e-02   4.156e-02
N2(g)             -1.77   1.710e-02  1.000   0.000e+00   1.560e-03   1.560e-03
NH3(g)            -7.57   2.722e-08  0.992   0.000e+00   2.482e-09   2.482e-09

-----------------------------Solution composition------------------------------

	Elements           Molality       Moles

	C                 2.125e-02   2.125e-02
	N                 4.881e-03   4.881e-03

----------------------------Description of solution----------------------------

                                       pH  =   5.819      Charge balance
                                       pe  =  -2.621      Adjusted to redox equilibrium
      Specific Conductance (µS/cm,  25°C)  = 546
                          Density (g/cm³)  =   0.99735
                               Volume (L)  =   1.00359
                        Viscosity (mPa s)  =   0.89172
                        Activity of water  =   1.000
                 Ionic strength (mol/kgw)  =   4.859e-03
                       Mass of water (kg)  =   9.998e-01
                 Total alkalinity (eq/kg)  =   4.859e-03
                       Total CO2 (mol/kg)  =   2.027e-02
                         Temperature (°C)  =  25.00
                           Pressure (atm)  =  1.10
                  Electrical balance (eq)  =  -1.217e-09
 Percent error, 100*(Cat-|An|)/(Cat+|An|)  =  -0.00
                               Iterations  =  24
                                  Total H  = 1.110237e+02
                                  Total O  = 5.554310e+01

----------------------------Distribution of species----------------------------

                                               Log       Log       Log    mole V
   Species          Molality    Activity  Molality  Activity     Gamma   cm³/mol

   H+              1.624e-06   1.517e-06    -5.789    -5.819    -0.029      0.00
   OH-             7.194e-09   6.669e-09    -8.143    -8.176    -0.033     -4.07
   H2O             5.551e+01   9.996e-01     1.744    -0.000     0.000     18.07
C(-4)         9.862e-04
   CH4             9.862e-04   9.873e-04    -3.006    -3.006     0.000     35.46
C(4)          2.027e-02
   CO2             1.540e-02   1.541e-02    -1.812    -1.812     0.000     34.79
   HCO3-           4.858e-03   4.517e-03    -2.314    -2.345    -0.032     24.63
   (CO2)2          3.860e-06   3.863e-06    -5.413    -5.413     0.000     68.75
   CO3-2           1.869e-07   1.397e-07    -6.728    -6.855    -0.127     -4.50
H(0)          5.682e-10
   H2              2.841e-10   2.844e-10    -9.547    -9.546     0.001     14.99
N(-3)         4.859e-03
   NH4+            4.857e-03   4.495e-03    -2.314    -2.347    -0.034     17.93
   NH3             1.687e-06   1.688e-06    -5.773    -5.773     0.000     24.42
N(0)          2.281e-05
   N2              1.140e-05   1.142e-05    -4.943    -4.942     0.000     29.29
N(3)          0.000e+00
   NO2-            0.000e+00   0.000e+00   -61.995   -62.029    -0.033     25.00
N(5)          0.000e+00
   NO3-            0.000e+00   0.000e+00   -84.169   -84.203    -0.033     29.53
O(0)          0.000e+00
   O2              0.000e+00   0.000e+00   -73.271   -73.271     0.000     30.40

------------------------------Saturation indices-------------------------------

  Phase               SI** log IAP   log K(298 K,   1 atm)

  CH4(g)           -0.20     -3.01   -2.80  CH4	 Pressure   0.6 atm, phi 0.998
  CO2(g)           -0.34     -1.81   -1.47  CO2	 Pressure   0.5 atm, phi 0.994
  H2(g)            -6.45     -9.55   -3.10  H2
  H2O(g)           -1.50     -0.00    1.50  H2O
  N2(g)            -1.77     -4.94   -3.18  N2	 Pressure   0.0 atm, phi 1.000
  NH3(g)           -7.57     -5.77    1.80  NH3	 Pressure   0.0 atm, phi 0.992
  O2(g)           -70.38    -73.27   -2.89  O2

**For a gas, SI = log10(fugacity). Fugacity = pressure * phi / 1 atm.
  For ideal gases, phi = 1.

Reaction step 9.

Using solution 1.	
Using gas phase 1.	
Using reaction 1.	

Reaction 1.	

	  1.600e-02 moles of the following reaction have been added:

	                 Relative
	Reactant            moles

	(CH2O)15N            1.00000

	                 Relative
	Element             moles
	C                   15.00000
	H                   30.00000
	N                    1.00000
	O                   15.00000

-----------------------------------Gas phase-----------------------------------

Total pressure:  1.10      atmospheres          (Peng-Robinson calculation)
    Gas volume:   4.92e+00 liters
  Molar volume:   2.22e+01 liters/mole
   P * Vm / RT:  0.99611  (Compressibility Factor Z) 

                                                        Moles in gas
                                            ----------------------------------
Component         log P           P    phi     Initial       Final       Delta

CH4(g)            -0.24   5.795e-01  0.998   0.000e+00   1.170e-01   1.170e-01
CO2(g)            -0.31   4.945e-01  0.994   0.000e+00   9.986e-02   9.986e-02
N2(g)             -1.59   2.598e-02  1.001   0.000e+00   5.246e-03   5.246e-03
NH3(g)            -7.50   3.159e-08  0.992   0.000e+00   6.379e-09   6.379e-09

-----------------------------Solution composition------------------------------

	Elements           Molality       Moles

	C                 2.311e-02   2.310e-02
	N                 5.510e-03   5.509e-03

----------------------------Description of solution----------------------------

                                       pH  =   5.834      Charge balance
                                       pe  =  -2.627      Adjusted to redox equilibrium
      Specific Conductance (µS/cm,  25°C)  = 613
                          Density (g/cm³)  =   0.99738
                               Volume (L)  =   1.00364
                        Viscosity (mPa s)  =   0.89187
                        Activity of water  =   1.000
                 Ionic strength (mol/kgw)  =   5.475e-03
                       Mass of water (kg)  =   9.998e-01
                 Total alkalinity (eq/kg)  =   5.475e-03
                       Total CO2 (mol/kg)  =   2.219e-02
                         Temperature (°C)  =  25.00
                           Pressure (atm)  =  1.10
                  Electrical balance (eq)  =  -1.217e-09
 Percent error, 100*(Cat-|An|)/(Cat+|An|)  =  -0.00
                               Iterations  =  25
                                  Total H  = 1.110243e+02
                                  Total O  = 5.554649e+01

----------------------------Distribution of species----------------------------

                                               Log       Log       Log    mole V
   Species          Molality    Activity  Molality  Activity     Gamma   cm³/mol

   H+              1.575e-06   1.467e-06    -5.803    -5.834    -0.031      0.00
   OH-             7.473e-09   6.898e-09    -8.126    -8.161    -0.035     -4.06
   H2O             5.551e+01   9.995e-01     1.744    -0.000     0.000     18.07
C(-4)         9.111e-04
   CH4             9.111e-04   9.123e-04    -3.040    -3.040     0.001     35.46
C(4)          2.219e-02
   CO2             1.671e-02   1.673e-02    -1.777    -1.777     0.000     34.79
   HCO3-           5.474e-03   5.070e-03    -2.262    -2.295    -0.033     24.64
   (CO2)2          4.544e-06   4.548e-06    -5.343    -5.342     0.000     68.75
   CO3-2           2.204e-07   1.621e-07    -6.657    -6.790    -0.133     -4.48
H(0)          5.457e-10
   H2              2.729e-10   2.732e-10    -9.564    -9.563     0.001     14.99
N(-3)         5.475e-03
   NH4+            5.473e-03   5.042e-03    -2.262    -2.297    -0.036     17.94
   NH3             1.957e-06   1.959e-06    -5.708    -5.708     0.001     24.42
N(0)          3.463e-05
   N2              1.732e-05   1.734e-05    -4.762    -4.761     0.001     29.29
N(3)          0.000e+00
   NO2-            0.000e+00   0.000e+00   -61.862   -61.897    -0.035     25.01
N(5)          0.000e+00
   NO3-            0.000e+00   0.000e+00   -84.019   -84.054    -0.035     29.53
O(0)          0.000e+00
   O2              0.000e+00   0.000e+00   -73.237   -73.236     0.001     30.40

------------------------------Saturation indices-------------------------------

  Phase               SI** log IAP   log K(298 K,   1 atm)

  CH4(g)           -0.24     -3.04   -2.80  CH4	 Pressure   0.6 atm, phi 0.998
  CO2(g)           -0.31     -1.78   -1.47  CO2	 Pressure   0.5 atm, phi 0.994
  H2(g)            -6.46     -9.56   -3.10  H2
  H2O(g)           -1.50     -0.00    1.50  H2O
  N2(g)            -1.59     -4.76   -3.18  N2	 Pressure   0.0 atm, phi 1.001
  NH3(g)           -7.50     -5.71    1.80  NH3	 Pressure   0.0 atm, phi 0.992
  O2(g)           -70.34    -73.24   -2.89  O2

**For a gas, SI = log10(fugacity). Fugacity = pressure * phi / 1 atm.
  For ideal gases, phi = 1.

Reaction step 10.

Using solution 1.	
Using gas phase 1.	
Using reaction 1.	

Reaction 1.	

	  3.200e-02 moles of the following reaction have been added:

	                 Relative
	Reactant            moles

	(CH2O)15N            1.00000

	                 Relative
	Element             moles
	C                   15.00000
	H                   30.00000
	N                    1.00000
	O                   15.00000

-----------------------------------Gas phase-----------------------------------

Total pressure:  1.10      atmospheres          (Peng-Robinson calculation)
    Gas volume:   1.04e+01 liters
  Molar volume:   2.22e+01 liters/mole
   P * Vm / RT:  0.99606  (Compressibility Factor Z) 

                                                        Moles in gas
                                            ----------------------------------
Component         log P           P    phi     Initial       Final       Delta

CH4(g)            -0.26   5.556e-01  0.998   0.000e+00   2.370e-01   2.370e-01
CO2(g)            -0.29   5.136e-01  0.994   0.000e+00   2.190e-01   2.190e-01
N2(g)             -1.51   3.074e-02  1.001   0.000e+00   1.311e-02   1.311e-02
NH3(g)            -7.48   3.334e-08  0.992   0.000e+00   1.422e-08   1.422e-08

-----------------------------Solution composition------------------------------

	Elements           Molality       Moles

	C                 2.398e-02   2.398e-02
	N                 5.784e-03   5.783e-03

----------------------------Description of solution----------------------------

                                       pH  =   5.837      Charge balance
                                       pe  =  -2.626      Adjusted to redox equilibrium
      Specific Conductance (µS/cm,  25°C)  = 642
                          Density (g/cm³)  =   0.99740
                               Volume (L)  =   1.00366
                        Viscosity (mPa s)  =   0.89194
                        Activity of water  =   0.999
                 Ionic strength (mol/kgw)  =   5.743e-03
                       Mass of water (kg)  =   9.998e-01
                 Total alkalinity (eq/kg)  =   5.743e-03
                       Total CO2 (mol/kg)  =   2.311e-02
                         Temperature (°C)  =  25.00
                           Pressure (atm)  =  1.10
                  Electrical balance (eq)  =  -1.217e-09
 Percent error, 100*(Cat-|An|)/(Cat+|An|)  =  -0.00
                               Iterations  =  26
                                  Total H  = 1.110245e+02
                                  Total O  = 5.554812e+01

----------------------------Distribution of species----------------------------

                                               Log       Log       Log    mole V
   Species          Molality    Activity  Molality  Activity     Gamma   cm³/mol

   H+              1.564e-06   1.455e-06    -5.806    -5.837    -0.032      0.00
   OH-             7.548e-09   6.955e-09    -8.122    -8.158    -0.036     -4.06
   H2O             5.551e+01   9.995e-01     1.744    -0.000     0.000     18.07
C(-4)         8.735e-04
   CH4             8.735e-04   8.747e-04    -3.059    -3.058     0.001     35.46
C(4)          2.311e-02
   CO2             1.736e-02   1.737e-02    -1.761    -1.760     0.000     34.79
   HCO3-           5.742e-03   5.309e-03    -2.241    -2.275    -0.034     24.64
   (CO2)2          4.902e-06   4.906e-06    -5.310    -5.309     0.000     68.75
   CO3-2           2.343e-07   1.712e-07    -6.630    -6.767    -0.136     -4.47
H(0)          5.349e-10
   H2              2.674e-10   2.678e-10    -9.573    -9.572     0.001     14.99
N(-3)         5.743e-03
   NH4+            5.741e-03   5.279e-03    -2.241    -2.277    -0.036     17.94
   NH3             2.065e-06   2.068e-06    -5.685    -5.684     0.001     24.42
N(0)          4.098e-05
   N2              2.049e-05   2.052e-05    -4.688    -4.688     0.001     29.29
N(3)          0.000e+00
   NO2-            0.000e+00   0.000e+00   -61.808   -61.844    -0.036     25.01
N(5)          0.000e+00
   NO3-            0.000e+00   0.000e+00   -83.956   -83.992    -0.036     29.53
O(0)          0.000e+00
   O2              0.000e+00   0.000e+00   -73.219   -73.219     0.001     30.40

------------------------------Saturation indices-------------------------------

  Phase               SI** log IAP   log K(298 K,   1 atm)

  CH4(g)           -0.26     -3.06   -2.80  CH4	 Pressure   0.6 atm, phi 0.998
  CO2(g)           -0.29     -1.76   -1.47  CO2	 Pressure   0.5 atm, phi 0.994
  H2(g)            -6.47     -9.57   -3.10  H2
  H2O(g)           -1.50     -0.00    1.50  H2O
  N2(g)            -1.51     -4.69   -3.18  N2	 Pressure   0.0 atm, phi 1.001
  NH3(g)           -7.48     -5.68    1.80  NH3	 Pressure   0.0 atm, phi 0.992
  O2(g)           -70.33    -73.22   -2.89  O2

**For a gas, SI = log10(fugacity). Fugacity = pressure * phi / 1 atm.
  For ideal gases, phi = 1.

Reaction step 11.

Using solution 1.	
Using gas phase 1.	
Using reaction 1.	

Reaction 1.	

	  6.400e-02 moles of the following reaction have been added:

	                 Relative
	Reactant            moles

	(CH2O)15N            1.00000

	                 Relative
	Element             moles
	C                   15.00000
	H                   30.00000
	N                    1.00000
	O                   15.00000

-----------------------------------Gas phase-----------------------------------

Total pressure:  1.10      atmospheres          (Peng-Robinson calculation)
    Gas volume:   2.14e+01 liters
  Molar volume:   2.22e+01 liters/mole
   P * Vm / RT:  0.99604  (Compressibility Factor Z) 

                                                        Moles in gas
                                            ----------------------------------
Component         log P           P    phi     Initial       Final       Delta

CH4(g)            -0.26   5.439e-01  0.998   0.000e+00   4.769e-01   4.769e-01
CO2(g)            -0.28   5.230e-01  0.994   0.000e+00   4.587e-01   4.587e-01
N2(g)             -1.48   3.312e-02  1.001   0.000e+00   2.905e-02   2.905e-02
NH3(g)            -7.47   3.410e-08  0.992   0.000e+00   2.991e-08   2.991e-08

-----------------------------Solution composition------------------------------

	Elements           Molality       Moles

	C                 2.440e-02   2.440e-02
	N                 5.910e-03   5.908e-03

----------------------------Description of solution----------------------------

                                       pH  =   5.838      Charge balance
                                       pe  =  -2.625      Adjusted to redox equilibrium
      Specific Conductance (µS/cm,  25°C)  = 656
                          Density (g/cm³)  =   0.99741
                               Volume (L)  =   1.00367
                        Viscosity (mPa s)  =   0.89197
                        Activity of water  =   0.999
                 Ionic strength (mol/kgw)  =   5.865e-03
                       Mass of water (kg)  =   9.998e-01
                 Total alkalinity (eq/kg)  =   5.865e-03
                       Total CO2 (mol/kg)  =   2.355e-02
                         Temperature (°C)  =  25.00
                           Pressure (atm)  =  1.10
                  Electrical balance (eq)  =  -1.217e-09
 Percent error, 100*(Cat-|An|)/(Cat+|An|)  =  -0.00
                               Iterations  =  27
                                  Total H  = 1.110246e+02
                                  Total O  = 5.554891e+01

----------------------------Distribution of species----------------------------

                                               Log       Log       Log    mole V
   Species          Molality    Activity  Molality  Activity     Gamma   cm³/mol

   H+              1.562e-06   1.451e-06    -5.806    -5.838    -0.032      0.00
   OH-             7.571e-09   6.970e-09    -8.121    -8.157    -0.036     -4.06
   H2O             5.551e+01   9.995e-01     1.744    -0.000     0.000     18.07
C(-4)         8.550e-04
   CH4             8.550e-04   8.561e-04    -3.068    -3.067     0.001     35.46
C(4)          2.355e-02
   CO2             1.767e-02   1.769e-02    -1.753    -1.752     0.000     34.79
   HCO3-           5.864e-03   5.418e-03    -2.232    -2.266    -0.034     24.65
   (CO2)2          5.083e-06   5.087e-06    -5.294    -5.294     0.000     68.75
   CO3-2           2.403e-07   1.751e-07    -6.619    -6.757    -0.138     -4.46
H(0)          5.296e-10
   H2              2.648e-10   2.652e-10    -9.577    -9.576     0.001     14.99
N(-3)         5.865e-03
   NH4+            5.863e-03   5.388e-03    -2.232    -2.269    -0.037     17.94
   NH3             2.112e-06   2.115e-06    -5.675    -5.675     0.001     24.42
N(0)          4.416e-05
   N2              2.208e-05   2.211e-05    -4.656    -4.655     0.001     29.29
N(3)          0.000e+00
   NO2-            0.000e+00   0.000e+00   -61.784   -61.820    -0.036     25.01
N(5)          0.000e+00
   NO3-            0.000e+00   0.000e+00   -83.928   -83.964    -0.036     29.53
O(0)          0.000e+00
   O2              0.000e+00   0.000e+00   -73.211   -73.210     0.001     30.40

------------------------------Saturation indices-------------------------------

  Phase               SI** log IAP   log K(298 K,   1 atm)

  CH4(g)           -0.27     -3.07   -2.80  CH4	 Pressure   0.5 atm, phi 0.998
  CO2(g)           -0.28     -1.75   -1.47  CO2	 Pressure   0.5 atm, phi 0.994
  H2(g)            -6.48     -9.58   -3.10  H2
  H2O(g)           -1.50     -0.00    1.50  H2O
  N2(g)            -1.48     -4.66   -3.18  N2	 Pressure   0.0 atm, phi 1.001
  NH3(g)           -7.47     -5.67    1.80  NH3	 Pressure   0.0 atm, phi 0.992
  O2(g)           -70.32    -73.21   -2.89  O2

**For a gas, SI = log10(fugacity). Fugacity = pressure * phi / 1 atm.
  For ideal gases, phi = 1.

Reaction step 12.

Using solution 1.	
Using gas phase 1.	
Using reaction 1.	

Reaction 1.	

	  1.280e-01 moles of the following reaction have been added:

	                 Relative
	Reactant            moles

	(CH2O)15N            1.00000

	                 Relative
	Element             moles
	C                   15.00000
	H                   30.00000
	N                    1.00000
	O                   15.00000

-----------------------------------Gas phase-----------------------------------

Total pressure:  1.10      atmospheres          (Peng-Robinson calculation)
    Gas volume:   4.33e+01 liters
  Molar volume:   2.22e+01 liters/mole
   P * Vm / RT:  0.99602  (Compressibility Factor Z) 

                                                        Moles in gas
                                            ----------------------------------
Component         log P           P    phi     Initial       Final       Delta

CH4(g)            -0.27   5.380e-01  0.998   0.000e+00   9.569e-01   9.569e-01
CO2(g)            -0.28   5.277e-01  0.994   0.000e+00   9.385e-01   9.385e-01
N2(g)             -1.46   3.431e-02  1.001   0.000e+00   6.102e-02   6.102e-02
NH3(g)            -7.46   3.445e-08  0.992   0.000e+00   6.128e-08   6.128e-08

-----------------------------Solution composition------------------------------

	Elements           Molality       Moles

	C                 2.461e-02   2.460e-02
	N                 5.969e-03   5.968e-03

----------------------------Description of solution----------------------------

                                       pH  =   5.839      Charge balance
                                       pe  =  -2.624      Adjusted to redox equilibrium
      Specific Conductance (µS/cm,  25°C)  = 662
                          Density (g/cm³)  =   0.99741
                               Volume (L)  =   1.00368
                        Viscosity (mPa s)  =   0.89198
                        Activity of water  =   0.999
                 Ionic strength (mol/kgw)  =   5.923e-03
                       Mass of water (kg)  =   9.998e-01
                 Total alkalinity (eq/kg)  =   5.924e-03
                       Total CO2 (mol/kg)  =   2.376e-02
                         Temperature (°C)  =  25.00
                           Pressure (atm)  =  1.10
                  Electrical balance (eq)  =  -1.217e-09
 Percent error, 100*(Cat-|An|)/(Cat+|An|)  =  -0.00
                               Iterations  =  27
                                  Total H  = 1.110247e+02
                                  Total O  = 5.554929e+01

----------------------------Distribution of species----------------------------

                                               Log       Log       Log    mole V
   Species          Molality    Activity  Molality  Activity     Gamma   cm³/mol

   H+              1.561e-06   1.450e-06    -5.807    -5.839    -0.032      0.00
   OH-             7.579e-09   6.975e-09    -8.120    -8.156    -0.036     -4.06
   H2O             5.551e+01   9.995e-01     1.744    -0.000     0.000     18.07
C(-4)         8.458e-04
   CH4             8.458e-04   8.470e-04    -3.073    -3.072     0.001     35.46
C(4)          2.376e-02
   CO2             1.783e-02   1.785e-02    -1.749    -1.748     0.000     34.79
   HCO3-           5.923e-03   5.470e-03    -2.227    -2.262    -0.034     24.65
   (CO2)2          5.173e-06   5.178e-06    -5.286    -5.286     0.000     68.75
   CO3-2           2.432e-07   1.769e-07    -6.614    -6.752    -0.138     -4.46
H(0)          5.270e-10
   H2              2.635e-10   2.639e-10    -9.579    -9.579     0.001     14.99
N(-3)         5.924e-03
   NH4+            5.922e-03   5.439e-03    -2.228    -2.264    -0.037     17.94
   NH3             2.134e-06   2.137e-06    -5.671    -5.670     0.001     24.42
N(0)          4.574e-05
   N2              2.287e-05   2.290e-05    -4.641    -4.640     0.001     29.29
N(3)          0.000e+00
   NO2-            0.000e+00   0.000e+00   -61.773   -61.809    -0.036     25.01
N(5)          0.000e+00
   NO3-            0.000e+00   0.000e+00   -83.914   -83.951    -0.036     29.53
O(0)          0.000e+00
   O2              0.000e+00   0.000e+00   -73.206   -73.206     0.001     30.40

------------------------------Saturation indices-------------------------------

  Phase               SI** log IAP   log K(298 K,   1 atm)

  CH4(g)           -0.27     -3.07   -2.80  CH4	 Pressure   0.5 atm, phi 0.998
  CO2(g)           -0.28     -1.75   -1.47  CO2	 Pressure   0.5 atm, phi 0.994
  H2(g)            -6.48     -9.58   -3.10  H2
  H2O(g)           -1.50     -0.00    1.50  H2O
  N2(g)            -1.46     -4.64   -3.18  N2	 Pressure   0.0 atm, phi 1.001
  NH3(g)           -7.47     -5.67    1.80  NH3	 Pressure   0.0 atm, phi 0.992
  O2(g)           -70.31    -73.21   -2.89  O2

**For a gas, SI = log10(fugacity). Fugacity = pressure * phi / 1 atm.
  For ideal gases, phi = 1.

------------------
End of simulation.
------------------

------------------------------------
Reading input data for simulation 4.
------------------------------------

	USE solution 1
	USE reaction 1
	USE gas_phase 2
	END
-----------------------------------------
Beginning of batch-reaction calculations.
-----------------------------------------

Reaction step 1.

Using solution 1.	
Using gas phase 2.	
Using reaction 1.	

Reaction 1.	

	  1.000e-04 moles of the following reaction have been added:

	                 Relative
	Reactant            moles

	(CH2O)15N            1.00000

	                 Relative
	Element             moles
	C                   15.00000
	H                   30.00000
	N                    1.00000
	O                   15.00000

----------------Fixed-pressure gas phase 2 dissolved completely----------------

-----------------------------Solution composition------------------------------

	Elements           Molality       Moles

	C                 1.500e-03   1.500e-03
	N                 1.000e-04   1.000e-04

----------------------------Description of solution----------------------------

                                       pH  =   5.524      Charge balance
                                       pe  =  -2.478      Adjusted to redox equilibrium
      Specific Conductance (µS/cm,  25°C)  = 12
                          Density (g/cm³)  =   0.99704
                               Volume (L)  =   1.00301
                        Viscosity (mPa s)  =   0.89013
                        Activity of water  =   1.000
                 Ionic strength (mol/kgw)  =   1.030e-04
                       Mass of water (kg)  =   1.000e+00
                 Total alkalinity (eq/kg)  =   1.000e-04
                       Total CO2 (mol/kg)  =   7.875e-04
                         Temperature (°C)  =  25.00
                           Pressure (atm)  =  1.10
                  Electrical balance (eq)  =  -1.217e-09
 Percent error, 100*(Cat-|An|)/(Cat+|An|)  =  -0.00
                               Iterations  =  14
                                  Total H  = 1.110154e+02
                                  Total O  = 5.550772e+01

----------------------------Distribution of species----------------------------

                                               Log       Log       Log    mole V
   Species          Molality    Activity  Molality  Activity     Gamma   cm³/mol

   H+              3.026e-06   2.991e-06    -5.519    -5.524    -0.005      0.00
   OH-             3.425e-09   3.384e-09    -8.465    -8.471    -0.005     -4.13
   H2O             5.551e+01   1.000e+00     1.744    -0.000     0.000     18.07
C(-4)         7.125e-04
   CH4             7.125e-04   7.125e-04    -3.147    -3.147     0.000     35.46
C(4)          7.875e-04
   CO2             6.845e-04   6.845e-04    -3.165    -3.165     0.000     34.79
   HCO3-           1.030e-04   1.018e-04    -3.987    -3.992    -0.005     24.53
   (CO2)2          7.617e-09   7.617e-09    -8.118    -8.118     0.000     68.75
   CO3-2           1.673e-09   1.597e-09    -8.776    -8.797    -0.020     -4.77
H(0)          1.142e-09
   H2              5.712e-10   5.712e-10    -9.243    -9.243     0.000     14.99
N(-3)         1.000e-04
   NH4+            9.998e-05   9.881e-05    -4.000    -4.005    -0.005     17.87
   NH3             1.883e-08   1.883e-08    -7.725    -7.725     0.000     24.42
N(0)          3.505e-10
   N2              1.752e-10   1.752e-10    -9.756    -9.756     0.000     29.29
N(3)          0.000e+00
   NO2-            0.000e+00   0.000e+00   -65.179   -65.184    -0.005     24.95
N(5)          0.000e+00
   NO3-            0.000e+00   0.000e+00   -87.656   -87.661    -0.005     29.47
O(0)          0.000e+00
   O2              0.000e+00   0.000e+00   -73.876   -73.876     0.000     30.40

------------------------------Saturation indices-------------------------------

  Phase               SI** log IAP   log K(298 K,   1 atm)

  CH4(g)           -0.35     -3.15   -2.80  CH4
  CO2(g)           -1.70     -3.16   -1.47  CO2
  H2(g)            -6.14     -9.24   -3.10  H2
  H2O(g)           -1.50     -0.00    1.50  H2O
  N2(g)            -6.58     -9.76   -3.18  N2
  NH3(g)           -9.52     -7.73    1.80  NH3
  O2(g)           -70.98    -73.88   -2.89  O2

**For a gas, SI = log10(fugacity). Fugacity = pressure * phi / 1 atm.
  For ideal gases, phi = 1.

Reaction step 2.

Using solution 1.	
Using gas phase 2.	
Using reaction 1.	

Reaction 1.	

	  2.000e-04 moles of the following reaction have been added:

	                 Relative
	Reactant            moles

	(CH2O)15N            1.00000

	                 Relative
	Element             moles
	C                   15.00000
	H                   30.00000
	N                    1.00000
	O                   15.00000

----------------Fixed-pressure gas phase 2 dissolved completely----------------

-----------------------------Solution composition------------------------------

	Elements           Molality       Moles

	C                 3.000e-03   3.000e-03
	N                 2.000e-04   2.000e-04

----------------------------Description of solution----------------------------

                                       pH  =   5.515      Charge balance
                                       pe  =  -2.468      Adjusted to redox equilibrium
      Specific Conductance (µS/cm,  25°C)  = 24
                          Density (g/cm³)  =   0.99704
                               Volume (L)  =   1.00306
                        Viscosity (mPa s)  =   0.89021
                        Activity of water  =   1.000
                 Ionic strength (mol/kgw)  =   2.031e-04
                       Mass of water (kg)  =   1.000e+00
                 Total alkalinity (eq/kg)  =   2.000e-04
                       Total CO2 (mol/kg)  =   1.575e-03
                         Temperature (°C)  =  25.00
                           Pressure (atm)  =  1.10
                  Electrical balance (eq)  =  -1.217e-09
 Percent error, 100*(Cat-|An|)/(Cat+|An|)  =  -0.00
                               Iterations  =  15
                                  Total H  = 1.110184e+02
                                  Total O  = 5.550922e+01

----------------------------Distribution of species----------------------------

                                               Log       Log       Log    mole V
   Species          Molality    Activity  Molality  Activity     Gamma   cm³/mol

   H+              3.104e-06   3.055e-06    -5.508    -5.515    -0.007      0.00
   OH-             3.369e-09   3.314e-09    -8.473    -8.480    -0.007     -4.12
   H2O             5.551e+01   9.999e-01     1.744    -0.000     0.000     18.07
C(-4)         1.425e-03
   CH4             1.425e-03   1.425e-03    -2.846    -2.846     0.000     35.46
C(4)          1.575e-03
   CO2             1.372e-03   1.372e-03    -2.863    -2.863     0.000     34.79
   HCO3-           2.031e-04   1.998e-04    -3.692    -3.699    -0.007     24.53
   (CO2)2          3.060e-08   3.060e-08    -7.514    -7.514     0.000     68.75
   CO3-2           3.274e-09   3.067e-09    -8.485    -8.513    -0.028     -4.75
H(0)          1.142e-09
   H2              5.708e-10   5.709e-10    -9.243    -9.243     0.000     14.99
N(-3)         2.000e-04
   NH4+            2.000e-04   1.967e-04    -3.699    -3.706    -0.007     17.88
   NH3             3.669e-08   3.669e-08    -7.435    -7.435     0.000     24.42
N(0)          1.333e-09
   N2              6.667e-10   6.667e-10    -9.176    -9.176     0.000     29.29
N(3)          0.000e+00
   NO2-            0.000e+00   0.000e+00   -64.896   -64.903    -0.007     24.95
N(5)          0.000e+00
   NO3-            0.000e+00   0.000e+00   -87.372   -87.379    -0.007     29.47
O(0)          0.000e+00
   O2              0.000e+00   0.000e+00   -73.876   -73.876     0.000     30.40

------------------------------Saturation indices-------------------------------

  Phase               SI** log IAP   log K(298 K,   1 atm)

  CH4(g)           -0.04     -2.85   -2.80  CH4
  CO2(g)           -1.39     -2.86   -1.47  CO2
  H2(g)            -6.14     -9.24   -3.10  H2
  H2O(g)           -1.50     -0.00    1.50  H2O
  N2(g)            -6.00     -9.18   -3.18  N2
  NH3(g)           -9.23     -7.44    1.80  NH3
  O2(g)           -70.98    -73.88   -2.89  O2

**For a gas, SI = log10(fugacity). Fugacity = pressure * phi / 1 atm.
  For ideal gases, phi = 1.

Reaction step 3.

Using solution 1.	
Using gas phase 2.	
Using reaction 1.	

Reaction 1.	

	  4.000e-04 moles of the following reaction have been added:

	                 Relative
	Reactant            moles

	(CH2O)15N            1.00000

	                 Relative
	Element             moles
	C                   15.00000
	H                   30.00000
	N                    1.00000
	O                   15.00000

-----------------------------------Gas phase-----------------------------------

Total pressure:  1.10      atmospheres          (Peng-Robinson calculation)
    Gas volume:   2.97e-02 liters
  Molar volume:   2.22e+01 liters/mole
   P * Vm / RT:  0.99730  (Compressibility Factor Z) 

                                                        Moles in gas
                                            ----------------------------------
Component         log P           P    phi     Initial       Final       Delta

CH4(g)             0.01   1.022e+00  0.998   0.000e+00   1.242e-03   1.242e-03
CO2(g)            -1.11   7.837e-02  0.994   0.000e+00   9.529e-05   9.529e-05
NH3(g)            -8.92   1.198e-09  0.992   0.000e+00   1.457e-12   1.457e-12

-----------------------------Solution composition------------------------------

	Elements           Molality       Moles

	C                 4.663e-03   4.663e-03
	N                 4.000e-04   4.000e-04

----------------------------Description of solution----------------------------

                                       pH  =   5.524      Charge balance
                                       pe  =  -2.448      Adjusted to redox equilibrium
      Specific Conductance (µS/cm,  25°C)  = 47
                          Density (g/cm³)  =   0.99706
                               Volume (L)  =   1.00311
                        Viscosity (mPa s)  =   0.89034
                        Activity of water  =   1.000
                 Ionic strength (mol/kgw)  =   4.030e-04
                       Mass of water (kg)  =   1.000e+00
                 Total alkalinity (eq/kg)  =   4.000e-04
                       Total CO2 (mol/kg)  =   3.055e-03
                         Temperature (°C)  =  25.00
                           Pressure (atm)  =  1.10
                  Electrical balance (eq)  =  -1.217e-09
 Percent error, 100*(Cat-|An|)/(Cat+|An|)  =  -0.00
                               Iterations  =  22
                                  Total H  = 1.110195e+02
                                  Total O  = 5.551203e+01

----------------------------Distribution of species----------------------------

                                               Log       Log       Log    mole V
   Species          Molality    Activity  Molality  Activity     Gamma   cm³/mol

   H+              3.062e-06   2.994e-06    -5.514    -5.524    -0.010      0.00
   OH-             3.459e-09   3.380e-09    -8.461    -8.471    -0.010     -4.12
   H2O             5.551e+01   9.999e-01     1.744    -0.000     0.000     18.07
C(-4)         1.608e-03
   CH4             1.608e-03   1.608e-03    -2.794    -2.794     0.000     35.46
C(4)          3.055e-03
   CO2             2.652e-03   2.652e-03    -2.577    -2.576     0.000     34.79
   HCO3-           4.030e-04   3.939e-04    -3.395    -3.405    -0.010     24.54
   (CO2)2          1.143e-07   1.143e-07    -6.942    -6.942     0.000     68.75
   CO3-2           6.758e-09   6.170e-09    -8.170    -8.210    -0.040     -4.72
H(0)          9.979e-10
   H2              4.989e-10   4.990e-10    -9.302    -9.302     0.000     14.99
N(-3)         4.000e-04
   NH4+            3.999e-04   3.908e-04    -3.398    -3.408    -0.010     17.88
   NH3             7.436e-08   7.437e-08    -7.129    -7.129     0.000     24.42
N(0)          8.201e-09
   N2              4.101e-09   4.101e-09    -8.387    -8.387     0.000     29.29
N(3)          0.000e+00
   NO2-            0.000e+00   0.000e+00   -64.402   -64.412    -0.010     24.96
N(5)          0.000e+00
   NO3-            0.000e+00   0.000e+00   -86.820   -86.830    -0.010     29.48
O(0)          0.000e+00
   O2              0.000e+00   0.000e+00   -73.759   -73.759     0.000     30.40

------------------------------Saturation indices-------------------------------

  Phase               SI** log IAP   log K(298 K,   1 atm)

  CH4(g)            0.01     -2.79   -2.80  CH4	 Pressure   1.0 atm, phi 0.998
  CO2(g)           -1.11     -2.58   -1.47  CO2	 Pressure   0.1 atm, phi 0.994
  H2(g)            -6.20     -9.30   -3.10  H2
  H2O(g)           -1.50     -0.00    1.50  H2O
  N2(g)            -5.21     -8.39   -3.18  N2
  NH3(g)           -8.92     -7.13    1.80  NH3	 Pressure   0.0 atm, phi 0.992
  O2(g)           -70.87    -73.76   -2.89  O2

**For a gas, SI = log10(fugacity). Fugacity = pressure * phi / 1 atm.
  For ideal gases, phi = 1.

Reaction step 4.

Using solution 1.	
Using gas phase 2.	
Using reaction 1.	

Reaction 1.	

	  8.000e-04 moles of the following reaction have been added:

	                 Relative
	Reactant            moles

	(CH2O)15N            1.00000

	                 Relative
	Element             moles
	C                   15.00000
	H                   30.00000
	N                    1.00000
	O                   15.00000

-----------------------------------Gas phase-----------------------------------

Total pressure:  1.10      atmospheres          (Peng-Robinson calculation)
    Gas volume:   1.07e-01 liters
  Molar volume:   2.22e+01 liters/mole
   P * Vm / RT:  0.99711  (Compressibility Factor Z) 

                                                        Moles in gas
                                            ----------------------------------
Component         log P           P    phi     Initial       Final       Delta

CH4(g)            -0.02   9.562e-01  0.998   0.000e+00   4.195e-03   4.195e-03
CO2(g)            -0.84   1.438e-01  0.994   0.000e+00   6.311e-04   6.311e-04
NH3(g)            -8.59   2.554e-09  0.992   0.000e+00   1.121e-11   1.121e-11

-----------------------------Solution composition------------------------------

	Elements           Molality       Moles

	C                 7.174e-03   7.174e-03
	N                 8.000e-04   8.000e-04

[...]
   HCO3-           2.029e-02   1.762e-02    -1.693    -1.754    -0.061     24.84
   CO2             1.685e-02   1.691e-02    -1.773    -1.772     0.002     34.79
   CaCO3           5.958e-06   5.990e-06    -5.225    -5.223     0.002    -14.60
   (CO2)2          4.630e-06   4.647e-06    -5.334    -5.333     0.002     68.75
   CO3-2           3.414e-06   1.938e-06    -5.467    -5.713    -0.246     -4.09
   CaHCO3+         3.264e-09   2.843e-09    -8.486    -8.546    -0.060      9.75
Ca            3.250e-03
   Ca+2            3.244e-03   1.840e-03    -2.489    -2.735    -0.246    -17.78
   CaCO3           5.958e-06   5.990e-06    -5.225    -5.223     0.002    -14.60
   CaHCO3+         3.264e-09   2.843e-09    -8.486    -8.546    -0.060      9.75
   CaOH+           8.296e-10   7.155e-10    -9.081    -9.145    -0.064     (0)  
H(0)          5.465e-10
   H2              2.732e-10   2.748e-10    -9.563    -9.561     0.002     14.99
N(-3)         1.382e-02
   NH4+            1.381e-02   1.177e-02    -1.860    -1.929    -0.070     18.01
   NH3             1.564e-05   1.572e-05    -4.806    -4.803     0.002     24.42
N(0)          2.183e-03
   N2              1.092e-03   1.098e-03    -2.962    -2.960     0.002     29.29
N(3)          0.000e+00
   NO2-            0.000e+00   0.000e+00   -60.396   -60.464    -0.068     25.08
N(5)          0.000e+00
   NO3-            0.000e+00   0.000e+00   -82.555   -82.623    -0.068     29.61
O(0)          0.000e+00
   O2              0.000e+00   0.000e+00   -73.244   -73.241     0.002     30.40

------------------------------Saturation indices-------------------------------

  Phase               SI** log IAP   log K(298 K,   1 atm)

  Aragonite        -0.11     -8.45   -8.34  CaCO3
  Calcite           0.00     -8.45   -8.45  CaCO3
  CH4(g)           -0.22     -3.02   -2.80  CH4	 Pressure   0.6 atm, phi 0.998
  CO2(g)           -0.30     -1.77   -1.47  CO2	 Pressure   0.5 atm, phi 0.994
  H2(g)            -6.46     -9.56   -3.10  H2
  H2O(g)           -1.50     -0.00    1.50  H2O
  N2(g)             0.22     -2.96   -3.18  N2
  NH3(g)           -6.60     -4.80    1.80  NH3	 Pressure   0.0 atm, phi 0.992
  O2(g)           -70.35    -73.24   -2.89  O2

**For a gas, SI = log10(fugacity). Fugacity = pressure * phi / 1 atm.
  For ideal gases, phi = 1.

Reaction step 10.

Using solution 2.	Solution after simulation 1.
Using pure phase assemblage 1.	
Using gas phase 2.	
Using reaction 1.	

Reaction 1.	

	  3.200e-02 moles of the following reaction have been added:

	                 Relative
	Reactant            moles

	(CH2O)15N            1.00000

	                 Relative
	Element             moles
	C                   15.00000
	H                   30.00000
	N                    1.00000
	O                   15.00000

-----------------------------------Gas phase-----------------------------------

Total pressure:  1.10      atmospheres          (Peng-Robinson calculation)
    Gas volume:   9.75e+00 liters
  Molar volume:   2.22e+01 liters/mole
   P * Vm / RT:  0.99595  (Compressibility Factor Z) 

                                                        Moles in gas
                                            ----------------------------------
Component         log P           P    phi     Initial       Final       Delta

CH4(g)            -0.24   5.761e-01  0.998   0.000e+00   2.306e-01   2.306e-01
CO2(g)            -0.28   5.239e-01  0.994   0.000e+00   2.097e-01   2.097e-01
NH3(g)            -6.29   5.089e-07  0.992   0.000e+00   2.037e-07   2.037e-07

-------------------------------Phase assemblage--------------------------------

                                                      Moles in assemblage
Phase               SI  log IAP  log K(T, P)   Initial       Final       Delta

Calcite          -0.00    -8.45     -8.45    1.000e+01   1.000e+01   4.006e-04

-----------------------------Solution composition------------------------------

	Elements           Molality       Moles

	C                 4.534e-02   4.531e-02
	Ca                2.098e-03   2.097e-03
	N                 3.202e-02   3.200e-02

----------------------------Description of solution----------------------------

                                       pH  =   6.465      Charge balance
                                       pe  =  -3.255      Adjusted to redox equilibrium
      Specific Conductance (µS/cm,  25°C)  = 2712
                          Density (g/cm³)  =   0.99828
                               Volume (L)  =   1.00403
                        Viscosity (mPa s)  =   0.89469
                        Activity of water  =   0.999
                 Ionic strength (mol/kgw)  =   2.889e-02
                       Mass of water (kg)  =   9.992e-01
                 Total alkalinity (eq/kg)  =   2.683e-02
                       Total CO2 (mol/kg)  =   4.444e-02
                         Temperature (°C)  =  25.00
                           Pressure (atm)  =  1.10
                  Electrical balance (eq)  =  -1.240e-09
 Percent error, 100*(Cat-|An|)/(Cat+|An|)  =  -0.00
                               Iterations  =  27
                                  Total H  = 1.110500e+02
                                  Total O  = 5.558016e+01

----------------------------Distribution of species----------------------------

                                               Log       Log       Log    mole V
   Species          Molality    Activity  Molality  Activity     Gamma   cm³/mol

   H+              3.912e-07   3.425e-07    -6.408    -6.465    -0.058      0.00
   OH-             3.488e-08   2.951e-08    -7.457    -7.530    -0.073     -3.95
   H2O             5.551e+01   9.987e-01     1.744    -0.001     0.000     18.07
C(-4)         9.008e-04
   CH4             9.008e-04   9.069e-04    -3.045    -3.042     0.003     35.46
C(4)          4.444e-02
   HCO3-           2.678e-02   2.298e-02    -1.572    -1.639    -0.066     24.89
   CO2             1.764e-02   1.772e-02    -1.753    -1.752     0.002     34.79
   CaCO3           5.950e-06   5.990e-06    -5.225    -5.223     0.003    -14.60
   CO3-2           5.811e-06   3.147e-06    -5.236    -5.502    -0.266     -4.01
   (CO2)2          5.082e-06   5.105e-06    -5.294    -5.292     0.002     68.75
   CaHCO3+         2.651e-09   2.283e-09    -8.577    -8.641    -0.065      9.76
Ca            2.098e-03
   Ca+2            2.092e-03   1.133e-03    -2.679    -2.946    -0.266    -17.74
   CaCO3           5.950e-06   5.990e-06    -5.225    -5.223     0.003    -14.60
   CaHCO3+         2.651e-09   2.283e-09    -8.577    -8.641    -0.065      9.76
   CaOH+           6.437e-10   5.483e-10    -9.191    -9.261    -0.070     (0)  
H(0)          5.338e-10
   H2              2.669e-10   2.688e-10    -9.574    -9.571     0.003     14.99
N(-3)         2.263e-02
   NH4+            2.260e-02   1.897e-02    -1.646    -1.722    -0.076     18.03
   NH3             3.135e-05   3.156e-05    -4.504    -4.501     0.003     24.42
N(0)          9.389e-03
   N2              4.695e-03   4.726e-03    -2.328    -2.326     0.003     29.29
N(3)          0.000e+00
   NO2-            0.000e+00   0.000e+00   -59.963   -60.038    -0.074     25.10
N(5)          0.000e+00
   NO3-            0.000e+00   0.000e+00   -82.113   -82.188    -0.074     29.62
O(0)          0.000e+00
   O2              0.000e+00   0.000e+00   -73.225   -73.223     0.003     30.40

------------------------------Saturation indices-------------------------------

  Phase               SI** log IAP   log K(298 K,   1 atm)

  Aragonite        -0.11     -8.45   -8.34  CaCO3
  Calcite          -0.00     -8.45   -8.45  CaCO3
  CH4(g)           -0.24     -3.04   -2.80  CH4	 Pressure   0.6 atm, phi 0.998
  CO2(g)           -0.28     -1.75   -1.47  CO2	 Pressure   0.5 atm, phi 0.994
  H2(g)            -6.47     -9.57   -3.10  H2
  H2O(g)           -1.50     -0.00    1.50  H2O
  N2(g)             0.85     -2.33   -3.18  N2
  NH3(g)           -6.30     -4.50    1.80  NH3	 Pressure   0.0 atm, phi 0.992
  O2(g)           -70.33    -73.22   -2.89  O2

**For a gas, SI = log10(fugacity). Fugacity = pressure * phi / 1 atm.
  For ideal gases, phi = 1.

Reaction step 11.

Using solution 2.	Solution after simulation 1.
Using pure phase assemblage 1.	
Using gas phase 2.	
Using reaction 1.	

Reaction 1.	

	  6.400e-02 moles of the following reaction have been added:

	                 Relative
	Reactant            moles

	(CH2O)15N            1.00000

	                 Relative
	Element             moles
	C                   15.00000
	H                   30.00000
	N                    1.00000
	O                   15.00000

-----------------------------------Gas phase-----------------------------------

Total pressure:  1.10      atmospheres          (Peng-Robinson calculation)
    Gas volume:   2.02e+01 liters
  Molar volume:   2.22e+01 liters/mole
   P * Vm / RT:  0.99591  (Compressibility Factor Z) 

                                                        Moles in gas
                                            ----------------------------------
Component         log P           P    phi     Initial       Final       Delta

CH4(g)            -0.25   5.639e-01  0.998   0.000e+00   4.669e-01   4.669e-01
CO2(g)            -0.27   5.361e-01  0.994   0.000e+00   4.439e-01   4.439e-01
NH3(g)            -6.04   9.155e-07  0.992   0.000e+00   7.580e-07   7.580e-07

-------------------------------Phase assemblage--------------------------------

                                                      Moles in assemblage
Phase               SI  log IAP  log K(T, P)   Initial       Final       Delta

Calcite          -0.00    -8.45     -8.45    1.000e+01   1.000e+01   1.150e-03

-----------------------------Solution composition------------------------------

	Elements           Molality       Moles

	C                 5.423e-02   5.417e-02
	Ca                1.348e-03   1.347e-03
	N                 6.407e-02   6.400e-02

----------------------------Description of solution----------------------------

                                       pH  =   6.569      Charge balance
                                       pe  =  -3.356      Adjusted to redox equilibrium
      Specific Conductance (µS/cm,  25°C)  = 3616
                          Density (g/cm³)  =   0.99853
                               Volume (L)  =   1.00447
                        Viscosity (mPa s)  =   0.89483
                        Activity of water  =   0.998
                 Ionic strength (mol/kgw)  =   3.667e-02
                       Mass of water (kg)  =   9.989e-01
                 Total alkalinity (eq/kg)  =   3.538e-02
                       Total CO2 (mol/kg)  =   5.335e-02
                         Temperature (°C)  =  25.00
                           Pressure (atm)  =  1.10
                  Electrical balance (eq)  =  -1.240e-09
 Percent error, 100*(Cat-|An|)/(Cat+|An|)  =  -0.00
                               Iterations  =  24
                                  Total H  = 1.110649e+02
                                  Total O  = 5.558966e+01

----------------------------Distribution of species----------------------------

                                               Log       Log       Log    mole V
   Species          Molality    Activity  Molality  Activity     Gamma   cm³/mol

   H+              3.113e-07   2.696e-07    -6.507    -6.569    -0.062      0.00
   OH-             4.506e-08   3.747e-08    -7.346    -7.426    -0.080     -3.92
   H2O             5.551e+01   9.982e-01     1.744    -0.001     0.000     18.07
C(-4)         8.802e-04
   CH4             8.802e-04   8.877e-04    -3.055    -3.052     0.004     35.46
C(4)          5.335e-02
   HCO3-           3.529e-02   2.986e-02    -1.452    -1.525    -0.073     24.95
   CO2             1.803e-02   1.813e-02    -1.744    -1.742     0.002     34.79
   CO3-2           1.016e-05   5.194e-06    -4.993    -5.285    -0.292     -3.90
   CaCO3           5.940e-06   5.990e-06    -5.226    -5.223     0.004    -14.60
   (CO2)2          5.315e-06   5.345e-06    -5.274    -5.272     0.002     68.75
   CaHCO3+         2.116e-09   1.797e-09    -8.674    -8.745    -0.071      9.78
Ca            1.348e-03
   Ca+2            1.342e-03   6.866e-04    -2.872    -3.163    -0.291    -17.69
   CaCO3           5.940e-06   5.990e-06    -5.226    -5.223     0.004    -14.60
   CaHCO3+         2.116e-09   1.797e-09    -8.674    -8.745    -0.071      9.78
   CaOH+           5.029e-10   4.218e-10    -9.299    -9.375    -0.076     (0)  
H(0)          5.268e-10
   H2              2.634e-10   2.658e-10    -9.579    -9.576     0.004     14.99
N(-3)         3.268e-02
   NH4+            3.263e-02   2.687e-02    -1.486    -1.571    -0.084     18.05
   NH3             5.630e-05   5.678e-05    -4.249    -4.246     0.004     24.42
N(0)          3.138e-02
   N2              1.569e-02   1.582e-02    -1.804    -1.801     0.004     29.29
N(3)          0.000e+00
   NO2-            0.000e+00   0.000e+00   -59.582   -59.664    -0.082     25.12
N(5)          0.000e+00
   NO3-            0.000e+00   0.000e+00   -81.727   -81.810    -0.082     29.64
O(0)          0.000e+00
   O2              0.000e+00   0.000e+00   -73.217   -73.213     0.004     30.40

------------------------------Saturation indices-------------------------------

  Phase               SI** log IAP   log K(298 K,   1 atm)

  Aragonite        -0.11     -8.45   -8.34  CaCO3
  Calcite          -0.00     -8.45   -8.45  CaCO3
  CH4(g)           -0.25     -3.05   -2.80  CH4	 Pressure   0.6 atm, phi 0.998
  CO2(g)           -0.27     -1.74   -1.47  CO2	 Pressure   0.5 atm, phi 0.994
  H2(g)            -6.48     -9.58   -3.10  H2
  H2O(g)           -1.50     -0.00    1.50  H2O
  N2(g)             1.38     -1.80   -3.18  N2
  NH3(g)           -6.04     -4.25    1.80  NH3	 Pressure   0.0 atm, phi 0.992
  O2(g)           -70.32    -73.21   -2.89  O2

**For a gas, SI = log10(fugacity). Fugacity = pressure * phi / 1 atm.
  For ideal gases, phi = 1.

Reaction step 12.

Using solution 2.	Solution after simulation 1.
Using pure phase assemblage 1.	
Using gas phase 2.	
Using reaction 1.	

Reaction 1.	

	  1.280e-01 moles of the following reaction have been added:

	                 Relative
	Reactant            moles

	(CH2O)15N            1.00000

	                 Relative
	Element             moles
	C                   15.00000
	H                   30.00000
	N                    1.00000
	O                   15.00000

-----------------------------------Gas phase-----------------------------------

Total pressure:  1.10      atmospheres          (Peng-Robinson calculation)
    Gas volume:   4.12e+01 liters
  Molar volume:   2.22e+01 liters/mole
   P * Vm / RT:  0.99589  (Compressibility Factor Z) 

                                                        Moles in gas
                                            ----------------------------------
Component         log P           P    phi     Initial       Final       Delta

CH4(g)            -0.25   5.575e-01  0.998   0.000e+00   9.428e-01   9.428e-01
CO2(g)            -0.27   5.425e-01  0.994   0.000e+00   9.174e-01   9.174e-01
NH3(g)            -5.83   1.491e-06  0.992   0.000e+00   2.522e-06   2.522e-06

-------------------------------Phase assemblage--------------------------------

                                                      Moles in assemblage
Phase               SI  log IAP  log K(T, P)   Initial       Final       Delta

Calcite          -0.00    -8.45     -8.45    1.000e+01   1.000e+01   1.590e-03

-----------------------------Solution composition------------------------------

	Elements           Molality       Moles

	C                 6.433e-02   6.424e-02
	Ca                9.085e-04   9.073e-04
	N                 1.282e-01   1.280e-01

----------------------------Description of solution----------------------------

                                       pH  =   6.666      Charge balance
                                       pe  =  -3.452      Adjusted to redox equilibrium
      Specific Conductance (µS/cm,  25°C)  = 4628
                          Density (g/cm³)  =   0.99882
                               Volume (L)  =   1.00537
                        Viscosity (mPa s)  =   0.89522
                        Activity of water  =   0.997
                 Ionic strength (mol/kgw)  =   4.616e-02
                       Mass of water (kg)  =   9.986e-01
                 Total alkalinity (eq/kg)  =   4.535e-02
                       Total CO2 (mol/kg)  =   6.346e-02
                         Temperature (°C)  =  25.00
                           Pressure (atm)  =  1.10
                  Electrical balance (eq)  =  -1.240e-09
 Percent error, 100*(Cat-|An|)/(Cat+|An|)  =  -0.00
                               Iterations  =  32
                                  Total H  = 1.110811e+02
                                  Total O  = 5.560127e+01

----------------------------Distribution of species----------------------------

                                               Log       Log       Log    mole V
   Species          Molality    Activity  Molality  Activity     Gamma   cm³/mol

   H+              2.520e-07   2.160e-07    -6.599    -6.666    -0.067      0.00
   OH-             5.723e-08   4.675e-08    -7.242    -7.330    -0.088     -3.88
   H2O             5.551e+01   9.974e-01     1.744    -0.001     0.000     18.07
C(-4)         8.684e-04
   CH4             8.684e-04   8.776e-04    -3.061    -3.057     0.005     35.46
C(4)          6.346e-02
   HCO3-           4.521e-02   3.769e-02    -1.345    -1.424    -0.079     25.03
   CO2             1.822e-02   1.835e-02    -1.739    -1.736     0.003     34.79
   CO3-2           1.700e-05   8.185e-06    -4.770    -5.087    -0.317     -3.78
   CaCO3           5.927e-06   5.990e-06    -5.227    -5.223     0.005    -14.60
   (CO2)2          5.434e-06   5.473e-06    -5.265    -5.262     0.003     68.75
   CaHCO3+         1.719e-09   1.440e-09    -8.765    -8.842    -0.077      9.79
Ca            9.085e-04
   Ca+2            9.026e-04   4.356e-04    -3.044    -3.361    -0.316    -17.64
   CaCO3           5.927e-06   5.990e-06    -5.227    -5.223     0.005    -14.60
   CaHCO3+         1.719e-09   1.440e-09    -8.765    -8.842    -0.077      9.79
   CaOH+           4.043e-10   3.339e-10    -9.393    -9.476    -0.083     (0)  
H(0)          5.224e-10
   H2              2.612e-10   2.641e-10    -9.583    -9.578     0.005     14.99
N(-3)         4.353e-02
   NH4+            4.344e-02   3.505e-02    -1.362    -1.455    -0.093     18.07
   NH3             9.151e-05   9.249e-05    -4.039    -4.034     0.005     24.42
N(0)          8.465e-02
   N2              4.232e-02   4.278e-02    -1.373    -1.369     0.005     29.29
N(3)          0.000e+00
   NO2-            0.000e+00   0.000e+00   -59.258   -59.349    -0.090     25.14
N(5)          0.000e+00
   NO3-            0.000e+00   0.000e+00   -81.401   -81.492    -0.090     29.67
O(0)          0.000e+00
   O2              0.000e+00   0.000e+00   -73.213   -73.208     0.005     30.40

------------------------------Saturation indices-------------------------------

  Phase               SI** log IAP   log K(298 K,   1 atm)

  Aragonite        -0.11     -8.45   -8.34  CaCO3
  Calcite          -0.00     -8.45   -8.45  CaCO3
  CH4(g)           -0.25     -3.06   -2.80  CH4	 Pressure   0.6 atm, phi 0.998
  CO2(g)           -0.27     -1.74   -1.47  CO2	 Pressure   0.5 atm, phi 0.994
  H2(g)            -6.48     -9.58   -3.10  H2
  H2O(g)           -1.50     -0.00    1.50  H2O
  N2(g)             1.81     -1.37   -3.18  N2
  NH3(g)           -5.83     -4.03    1.80  NH3	 Pressure   0.0 atm, phi 0.992
  O2(g)           -70.32    -73.21   -2.89  O2

**For a gas, SI = log10(fugacity). Fugacity = pressure * phi / 1 atm.
  For ideal gases, phi = 1.

------------------
End of simulation.
------------------

-------------------------------------
Reading input data for simulation 11.
-------------------------------------

