WARNING: Database file from DATABASE keyword is used; command line argument ignored.
   Input file: P_CO2_Na2SO4
  Output file: P_CO2_Na2SO4.out
Database file: ../database/pitzer.dat

------------------
Reading data base.
------------------

	SOLUTION_MASTER_SPECIES
	SOLUTION_SPECIES
	PHASES
	PITZER
	GAS_BINARY_PARAMETERS
	EXCHANGE_MASTER_SPECIES
	EXCHANGE_SPECIES
	SURFACE_MASTER_SPECIES
	SURFACE_SPECIES
	MEAN_GAMMAS
	END
------------------------------------
Reading input data for simulation 1.
------------------------------------

	DATABASE ../database/pitzer.dat
	SELECTED_OUTPUT 101
	    file                 P_CO2_Na2SO4_101.sel
	USER_PUNCH 101
	    headings Mu SC
	    start
	10 PUNCH STR_F$(MU, 20, 12)
	20 PUNCH STR_F$(SC, 20, 10)
	    end
	SOLUTION 1
	 pH 7 charge
	 Na 2e3
	 S(6) 1e3
	 temp 140
	GAS_PHASE 1
	     fixed_volume
	     CO2(g) 0
		 H2O(g) 0
	EQUILIBRIUM_PHASES
	REACTION
	 CO2 1
	 4 in 10
	USER_GRAPH
	 -plot_csv_file P_CO2_Na2SO4.dat
	 -axis_titles "CO2 pressure / bar" "Solubility at 140 oC / (mol/kgw)"
	 -connect_simulations false
	 -axis_scale x_axis 0 100
	 10 graph_x pr_p("CO2(g)") * 1.013
	 20 graph_y tot("C")
	END
-------------------------------------------
Beginning of initial solution calculations.
-------------------------------------------

Initial solution 1.	

-----------------------------Solution composition------------------------------

	Elements           Molality       Moles

	Na                2.000e+00   2.000e+00
	S(6)              1.000e+00   1.000e+00

----------------------------Description of solution----------------------------

                                       pH  =   6.842      Charge balance
                                       pe  =   4.000    
      Specific Conductance (µS/cm, 140°C)  = 421985
                          Density (g/cm³)  =   1.03719
                               Volume (L)  =   1.10109
                        Viscosity (mPa s)  =   0.29780
                        Activity of water  =   0.967
                 Ionic strength (mol/kgw)  =   3.000e+00
                       Mass of water (kg)  =   1.000e+00
                 Total alkalinity (eq/kg)  =   3.083e-13
                         Temperature (°C)  = 140.00
                  Electrical balance (eq)  =   3.114e-09
 Percent error, 100*(Cat-|An|)/(Cat+|An|)  =   0.00
                               Iterations  =  11
                         Gamma iterations  =   4
                      Osmotic coefficient  =   0.61151
                         Density of water  =   0.92614
                                  Total H  = 1.110125e+02
                                  Total O  = 5.950624e+01

----------------------------Distribution of species----------------------------

                                                    MacInnes  MacInnes
                                MacInnes       Log       Log       Log    mole V
   Species          Molality    Activity  Molality  Activity     Gamma   cm³/mol

   OH-             2.394e-05   1.272e-05    -4.621    -4.896    -0.275     -1.47
   H+              5.663e-07   1.439e-07    -6.247    -6.842    -0.595      0.00
   H2O             5.551e+01   9.675e-01     1.744    -0.014     0.000     19.45
Na            2.000e+00
   Na+             2.000e+00   7.441e-01     0.301    -0.128    -0.429      1.98
S(6)          1.000e+00
   SO4-2           1.000e+00   2.532e-02    -0.000    -1.597    -1.597     17.38
   HSO4-           2.338e-05   9.044e-06    -4.631    -5.044    -0.412     43.23

------------------------------Saturation indices-------------------------------

  Phase               SI** log IAP   log K(413 K,   1 atm)

  H2O(g)            0.53     -0.01   -0.54  H2O
  Mirabilite       -2.08     -2.00    0.08  Na2SO4:10H2O
  Thenardite       -0.79     -1.85   -1.07  Na2SO4

**For a gas, SI = log10(fugacity). Fugacity = pressure * phi / 1 atm.
  For ideal gases, phi = 1.

-----------------------------------------
Beginning of batch-reaction calculations.
-----------------------------------------

Reaction step 1.

Using solution 1.	
Using pure phase assemblage 1.	
Using gas phase 1.	
Using reaction 1.	

Reaction 1.	

	  4.000e-01 moles of the following reaction have been added:

	                 Relative
	Reactant            moles

	CO2                  1.00000

	                 Relative
	Element             moles
	C                    1.00000
	O                    2.00000

-----------------------------------Gas phase-----------------------------------

Total pressure: 14.71      atmospheres          (Peng-Robinson calculation)
    Gas volume:   1.00e+00 liters
  Molar volume:   2.22e+00 liters/mole
   P * Vm / RT:  0.96264  (Compressibility Factor Z) 

                                                        Moles in gas
                                            ----------------------------------
Component         log P           P    phi     Initial       Final       Delta

CO2(g)             1.04   1.106e+01  0.976   0.000e+00   3.389e-01   3.389e-01
H2O(g)             0.56   3.651e+00  0.928   0.000e+00   1.119e-01   1.119e-01

-----------------------------Solution composition------------------------------

	Elements           Molality       Moles

	C                 6.125e-02   6.112e-02
	Na                2.004e+00   2.000e+00
	S                 1.002e+00   1.000e+00

----------------------------Description of solution----------------------------

                                       pH  =   4.693      Charge balance
                                       pe  =   4.000      Adjusted to redox equilibrium
      Specific Conductance (µS/cm, 140°C)  = 419173
                          Density (g/cm³)  =   1.03747
                               Volume (L)  =   1.10145
                        Viscosity (mPa s)  =   0.29695
                        Activity of water  =   0.966
                 Ionic strength (mol/kgw)  =   3.003e+00
                       Mass of water (kg)  =   9.979e-01
                 Total alkalinity (eq/kg)  =   3.207e-13
                       Total CO2 (mol/kg)  =   6.125e-02
                         Temperature (°C)  = 140.00
                           Pressure (atm)  = 14.71
                  Electrical balance (eq)  =   3.114e-09
 Percent error, 100*(Cat-|An|)/(Cat+|An|)  =   0.00
                               Iterations  =  34
                         Gamma iterations  =   4
                      Osmotic coefficient  =   0.62820
                         Density of water  =   0.92614
                                  Total H  = 1.107887e+02
                                  Total O  = 5.951661e+01

----------------------------Distribution of species----------------------------

                                                    MacInnes  MacInnes
                                MacInnes       Log       Log       Log    mole V
   Species          Molality    Activity  Molality  Activity     Gamma   cm³/mol

   H+              7.951e-05   2.028e-05    -4.100    -4.693    -0.593      0.00
   OH-             1.707e-07   9.087e-08    -6.768    -7.042    -0.274     -1.56
   H2O             5.551e+01   9.659e-01     1.744    -0.015     0.000     19.45
C(4)          6.125e-02
   CO2             5.791e-02   9.097e-02    -1.237    -1.041     0.196     43.34
   HCO3-           3.338e-03   9.201e-04    -2.477    -3.036    -0.560     26.91
   CO3-2           4.328e-08   2.119e-09    -7.364    -8.674    -1.310     -3.59
Na            2.004e+00
   Na+             2.004e+00   7.533e-01     0.302    -0.123    -0.425      2.01
S(6)          1.002e+00
   SO4-2           9.988e-01   2.534e-02    -0.001    -1.596    -1.596     17.23
   HSO4-           3.259e-03   1.262e-03    -2.487    -2.899    -0.412     43.18

------------------------------Saturation indices-------------------------------

  Phase               SI** log IAP   log K(413 K,  15 atm)

  Burkeite        -11.85    -12.60   -0.75  Na6CO3(SO4)2
  CO2(g)            1.03     -1.04   -2.07  CO2	 Pressure  11.1 atm, phi 0.976
  H2O(g)            0.53     -0.02   -0.54  H2O	 Pressure   3.7 atm, phi 0.928
  Mirabilite       -2.07     -1.99    0.08  Na2SO4:10H2O
  Nahcolite        -2.75    -13.49  -10.74  NaHCO3
  Natron           -8.21     -9.07   -0.86  Na2CO3:10H2O
  Thenardite       -0.78     -1.84   -1.06  Na2SO4
  Trona           -11.07    -22.44  -11.37  Na3H(CO3)2:2H2O

**For a gas, SI = log10(fugacity). Fugacity = pressure * phi / 1 atm.
  For ideal gases, phi = 1.

Reaction step 2.

Using solution 1.	
Using pure phase assemblage 1.	
Using gas phase 1.	
Using reaction 1.	

Reaction 1.	

	  8.000e-01 moles of the following reaction have been added:

	                 Relative
	Reactant            moles

	CO2                  1.00000

	                 Relative
	Element             moles
	C                    1.00000
	O                    2.00000

-----------------------------------Gas phase-----------------------------------

Total pressure: 25.71      atmospheres          (Peng-Robinson calculation)
    Gas volume:   1.00e+00 liters
  Molar volume:   1.24e+00 liters/mole
   P * Vm / RT:  0.94301  (Compressibility Factor Z) 

                                                        Moles in gas
                                            ----------------------------------
Component         log P           P    phi     Initial       Final       Delta

CO2(g)             1.34   2.187e+01  0.955   0.000e+00   6.841e-01   6.841e-01
H2O(g)             0.58   3.841e+00  0.886   0.000e+00   1.201e-01   1.201e-01

-----------------------------Solution composition------------------------------

	Elements           Molality       Moles

	C                 1.161e-01   1.159e-01
	Na                2.005e+00   2.000e+00
	S                 1.002e+00   1.000e+00

----------------------------Description of solution----------------------------

                                       pH  =   4.550      Charge balance
                                       pe  =   4.000      Adjusted to redox equilibrium
      Specific Conductance (µS/cm, 140°C)  = 416284
                          Density (g/cm³)  =   1.03753
                               Volume (L)  =   1.10357
                        Viscosity (mPa s)  =   0.29614
                        Activity of water  =   0.964
                 Ionic strength (mol/kgw)  =   3.002e+00
                       Mass of water (kg)  =   9.978e-01
                 Total alkalinity (eq/kg)  =   3.610e-13
                       Total CO2 (mol/kg)  =   1.161e-01
                         Temperature (°C)  = 140.00
                           Pressure (atm)  = 25.71
                  Electrical balance (eq)  =   3.114e-09
 Percent error, 100*(Cat-|An|)/(Cat+|An|)  =   0.00
                               Iterations  =  36
                         Gamma iterations  =   4
                      Osmotic coefficient  =   0.64264
                         Density of water  =   0.92614
                                  Total H  = 1.107722e+02
                                  Total O  = 5.961782e+01

----------------------------Distribution of species----------------------------

                                                    MacInnes  MacInnes
                                MacInnes       Log       Log       Log    mole V
   Species          Molality    Activity  Molality  Activity     Gamma   cm³/mol

   H+              1.102e-04   2.817e-05    -3.958    -4.550    -0.593      0.00
   OH-             1.233e-07   6.577e-08    -6.909    -7.182    -0.273     -1.64
   H2O             5.551e+01   9.645e-01     1.744    -0.016     0.000     19.45
C(4)          1.161e-01
   CO2             1.115e-01   1.737e-01    -0.953    -0.760     0.193     43.27
   HCO3-           4.627e-03   1.277e-03    -2.335    -2.894    -0.559     26.95
   CO3-2           4.358e-08   2.138e-09    -7.361    -8.670    -1.309     -3.45
Na            2.005e+00
   Na+             2.005e+00   7.605e-01     0.302    -0.119    -0.421      2.03
S(6)          1.002e+00
   SO4-2           9.977e-01   2.553e-02    -0.001    -1.593    -1.592     17.11
   HSO4-           4.517e-03   1.752e-03    -2.345    -2.757    -0.411     43.13

------------------------------Saturation indices-------------------------------

  Phase               SI** log IAP   log K(413 K,  26 atm)

  Burkeite        -11.83    -12.57   -0.74  Na6CO3(SO4)2
  CO2(g)            1.32     -0.76   -2.08  CO2	 Pressure  21.9 atm, phi 0.955
  H2O(g)            0.53     -0.02   -0.55  H2O	 Pressure   3.8 atm, phi 0.886
  Mirabilite       -2.07     -1.99    0.08  Na2SO4:10H2O
  Nahcolite        -2.61    -13.34  -10.73  NaHCO3
  Natron           -8.18     -9.06   -0.89  Na2CO3:10H2O
  Thenardite       -0.77     -1.83   -1.06  Na2SO4
  Trona           -10.92    -22.28  -11.36  Na3H(CO3)2:2H2O

**For a gas, SI = log10(fugacity). Fugacity = pressure * phi / 1 atm.
  For ideal gases, phi = 1.

Reaction step 3.

Using solution 1.	
Using pure phase assemblage 1.	
Using gas phase 1.	
Using reaction 1.	

Reaction 1.	

	  1.200e+00 moles of the following reaction have been added:

	                 Relative
	Reactant            moles

	CO2                  1.00000

	                 Relative
	Element             moles
	C                    1.00000
	O                    2.00000

-----------------------------------Gas phase-----------------------------------

Total pressure: 36.42      atmospheres          (Peng-Robinson calculation)
    Gas volume:   1.00e+00 liters
  Molar volume:   8.60e-01 liters/mole
   P * Vm / RT:  0.92374  (Compressibility Factor Z) 

                                                        Moles in gas
                                            ----------------------------------
Component         log P           P    phi     Initial       Final       Delta

CO2(g)             1.51   3.238e+01  0.936   0.000e+00   1.034e+00   1.034e+00
H2O(g)             0.61   4.036e+00  0.847   0.000e+00   1.289e-01   1.289e-01

-----------------------------Solution composition------------------------------

	Elements           Molality       Moles

	C                 1.664e-01   1.660e-01
	Na                2.005e+00   2.000e+00
	S                 1.002e+00   1.000e+00

----------------------------Description of solution----------------------------

                                       pH  =   4.470      Charge balance
                                       pe  =   4.000      Adjusted to redox equilibrium
      Specific Conductance (µS/cm, 140°C)  = 413392
                          Density (g/cm³)  =   1.03759
                               Volume (L)  =   1.10548
                        Viscosity (mPa s)  =   0.29550
                        Activity of water  =   0.963
                 Ionic strength (mol/kgw)  =   3.002e+00
                       Mass of water (kg)  =   9.976e-01
                 Total alkalinity (eq/kg)  =   4.290e-13
                       Total CO2 (mol/kg)  =   1.664e-01
                         Temperature (°C)  = 140.00
                           Pressure (atm)  = 36.42
                  Electrical balance (eq)  =   3.113e-09
 Percent error, 100*(Cat-|An|)/(Cat+|An|)  =   0.00
                               Iterations  =  39
                         Gamma iterations  =   4
                      Osmotic coefficient  =   0.65538
                         Density of water  =   0.92614
                                  Total H  = 1.107548e+02
                                  Total O  = 5.970938e+01

----------------------------Distribution of species----------------------------

                                                    MacInnes  MacInnes
                                MacInnes       Log       Log       Log    mole V
   Species          Molality    Activity  Molality  Activity     Gamma   cm³/mol

   H+              1.324e-04   3.388e-05    -3.878    -4.470    -0.592      0.00
   OH-             1.030e-07   5.498e-08    -6.987    -7.260    -0.272     -1.71
   H2O             5.551e+01   9.632e-01     1.744    -0.016     0.000     19.45
C(4)          1.664e-01
   CO2             1.608e-01   2.487e-01    -0.794    -0.604     0.189     43.20
   HCO3-           5.556e-03   1.536e-03    -2.255    -2.814    -0.558     26.99
   CO3-2           4.387e-08   2.159e-09    -7.358    -8.666    -1.308     -3.32
Na            2.005e+00
   Na+             2.005e+00   7.672e-01     0.302    -0.115    -0.417      2.06
S(6)          1.002e+00
   SO4-2           9.970e-01   2.574e-02    -0.001    -1.589    -1.588     17.00
   HSO4-           5.424e-03   2.106e-03    -2.266    -2.677    -0.411     43.09

------------------------------Saturation indices-------------------------------

  Phase               SI** log IAP   log K(413 K,  36 atm)

  Burkeite        -11.81    -12.54   -0.72  Na6CO3(SO4)2
  CO2(g)            1.48     -0.60   -2.09  CO2	 Pressure  32.4 atm, phi 0.936
  H2O(g)            0.53     -0.02   -0.55  H2O	 Pressure   4.0 atm, phi 0.847
  Mirabilite       -2.06     -1.98    0.08  Na2SO4:10H2O
  Nahcolite        -2.53    -13.25  -10.72  NaHCO3
  Natron           -8.15     -9.06   -0.91  Na2CO3:10H2O
  Thenardite       -0.77     -1.82   -1.05  Na2SO4
  Trona           -10.83    -22.18  -11.35  Na3H(CO3)2:2H2O

**For a gas, SI = log10(fugacity). Fugacity = pressure * phi / 1 atm.
  For ideal gases, phi = 1.

Reaction step 4.

Using solution 1.	
Using pure phase assemblage 1.	
Using gas phase 1.	
Using reaction 1.	

Reaction 1.	

	  1.600e+00 moles of the following reaction have been added:

	                 Relative
	Reactant            moles

	CO2                  1.00000

	                 Relative
	Element             moles
	C                    1.00000
	O                    2.00000

-----------------------------------Gas phase-----------------------------------

Total pressure: 46.83      atmospheres          (Peng-Robinson calculation)
    Gas volume:   1.00e+00 liters
  Molar volume:   6.55e-01 liters/mole
   P * Vm / RT:  0.90524  (Compressibility Factor Z) 

                                                        Moles in gas
                                            ----------------------------------
Component         log P           P    phi     Initial       Final       Delta

CO2(g)             1.63   4.260e+01  0.919   0.000e+00   1.388e+00   1.388e+00
H2O(g)             0.63   4.237e+00  0.811   0.000e+00   1.381e-01   1.381e-01

-----------------------------Solution composition------------------------------

	Elements           Molality       Moles

	C                 2.126e-01   2.121e-01
	Na                2.005e+00   2.000e+00
	S                 1.003e+00   1.000e+00

----------------------------Description of solution----------------------------

                                       pH  =   4.415      Charge balance
                                       pe  =   4.000      Adjusted to redox equilibrium
      Specific Conductance (µS/cm, 140°C)  = 410521
                          Density (g/cm³)  =   1.03765
                               Volume (L)  =   1.10720
                        Viscosity (mPa s)  =   0.29498
                        Activity of water  =   0.962
                 Ionic strength (mol/kgw)  =   3.002e+00
                       Mass of water (kg)  =   9.974e-01
                 Total alkalinity (eq/kg)  =   4.906e-13
                       Total CO2 (mol/kg)  =   2.126e-01
                         Temperature (°C)  = 140.00
                           Pressure (atm)  = 46.83
                  Electrical balance (eq)  =   3.112e-09
 Percent error, 100*(Cat-|An|)/(Cat+|An|)  =   0.00
                               Iterations  =  41
                         Gamma iterations  =   5
                      Osmotic coefficient  =   0.66668
                         Density of water  =   0.92614
                                  Total H  = 1.107364e+02
                                  Total O  = 5.979232e+01

----------------------------Distribution of species----------------------------

                                                    MacInnes  MacInnes
                                MacInnes       Log       Log       Log    mole V
   Species          Molality    Activity  Molality  Activity     Gamma   cm³/mol

   H+              1.499e-04   3.842e-05    -3.824    -4.415    -0.591      0.00
   OH-             9.115e-08   4.875e-08    -7.040    -7.312    -0.272     -1.78
   H2O             5.551e+01   9.621e-01     1.744    -0.017     0.000     19.45
C(4)          2.126e-01
   CO2             2.063e-01   3.168e-01    -0.685    -0.499     0.186     43.14
   HCO3-           6.292e-03   1.742e-03    -2.201    -2.759    -0.558     27.03
   CO3-2           4.414e-08   2.179e-09    -7.355    -8.662    -1.307     -3.19
Na            2.005e+00
   Na+             2.005e+00   7.735e-01     0.302    -0.112    -0.414      2.08
S(6)          1.003e+00
   SO4-2           9.965e-01   2.594e-02    -0.002    -1.586    -1.584     16.89
   HSO4-           6.143e-03   2.388e-03    -2.212    -2.622    -0.410     43.05

------------------------------Saturation indices-------------------------------

  Phase               SI** log IAP   log K(413 K,  47 atm)

  Burkeite        -11.79    -12.50   -0.71  Na6CO3(SO4)2
  CO2(g)            1.59     -0.50   -2.09  CO2	 Pressure  42.6 atm, phi 0.919
  H2O(g)            0.54     -0.02   -0.55  H2O	 Pressure   4.2 atm, phi 0.811
  Mirabilite       -2.06     -1.98    0.08  Na2SO4:10H2O
  Nahcolite        -2.47    -13.19  -10.72  NaHCO3
  Natron           -8.11     -9.05   -0.94  Na2CO3:10H2O
  Thenardite       -0.76     -1.81   -1.05  Na2SO4
  Trona           -10.76    -22.11  -11.34  Na3H(CO3)2:2H2O

**For a gas, SI = log10(fugacity). Fugacity = pressure * phi / 1 atm.
  For ideal gases, phi = 1.

Reaction step 5.

Using solution 1.	
Using pure phase assemblage 1.	
Using gas phase 1.	
Using reaction 1.	

Reaction 1.	

	  2.000e+00 moles of the following reaction have been added:

	                 Relative
	Reactant            moles

	CO2                  1.00000

	                 Relative
	Element             moles
	C                    1.00000
	O                    2.00000

-----------------------------------Gas phase-----------------------------------

Total pressure: 56.97      atmospheres          (Peng-Robinson calculation)
    Gas volume:   1.00e+00 liters
  Molar volume:   5.28e-01 liters/mole
   P * Vm / RT:  0.88761  (Compressibility Factor Z) 

                                                        Moles in gas
                                            ----------------------------------
Component         log P           P    phi     Initial       Final       Delta

CO2(g)             1.72   5.253e+01  0.902   0.000e+00   1.746e+00   1.746e+00
H2O(g)             0.65   4.446e+00  0.777   0.000e+00   1.477e-01   1.477e-01

-----------------------------Solution composition------------------------------

	Elements           Molality       Moles

	C                 2.552e-01   2.545e-01
	Na                2.006e+00   2.000e+00
	S                 1.003e+00   1.000e+00

----------------------------Description of solution----------------------------

                                       pH  =   4.375      Charge balance
                                       pe  =   4.000      Adjusted to redox equilibrium
      Specific Conductance (µS/cm, 140°C)  = 407688
                          Density (g/cm³)  =   1.03772
                               Volume (L)  =   1.10876
                        Viscosity (mPa s)  =   0.29456
                        Activity of water  =   0.961
                 Ionic strength (mol/kgw)  =   3.002e+00
                       Mass of water (kg)  =   9.972e-01
                 Total alkalinity (eq/kg)  =   6.511e-13
                       Total CO2 (mol/kg)  =   2.552e-01
                         Temperature (°C)  = 140.00
                           Pressure (atm)  = 56.97
                  Electrical balance (eq)  =   3.109e-09
 Percent error, 100*(Cat-|An|)/(Cat+|An|)  =   0.00
                               Iterations  =  42
                         Gamma iterations  =   5
                      Osmotic coefficient  =   0.67675
                         Density of water  =   0.92614
                                  Total H  = 1.107170e+02
                                  Total O  = 5.986743e+01

----------------------------Distribution of species----------------------------

                                                    MacInnes  MacInnes
                                MacInnes       Log       Log       Log    mole V
   Species          Molality    Activity  Molality  Activity     Gamma   cm³/mol

   H+              1.644e-04   4.221e-05    -3.784    -4.375    -0.591      0.00
   OH-             8.330e-08   4.461e-08    -7.079    -7.351    -0.271     -1.85
   H2O             5.551e+01   9.610e-01     1.744    -0.017     0.000     19.45
C(4)          2.552e-01
   CO2             2.483e-01   3.788e-01    -0.605    -0.422     0.183     43.08
   HCO3-           6.904e-03   1.914e-03    -2.161    -2.718    -0.557     27.07
   CO3-2           4.439e-08   2.198e-09    -7.353    -8.658    -1.305     -3.06
Na            2.006e+00
   Na+             2.006e+00   7.793e-01     0.302    -0.108    -0.411      2.10
S(6)          1.003e+00
   SO4-2           9.961e-01   2.615e-02    -0.002    -1.583    -1.581     16.79
   HSO4-           6.740e-03   2.623e-03    -2.171    -2.581    -0.410     43.00

------------------------------Saturation indices-------------------------------

  Phase               SI** log IAP   log K(413 K,  57 atm)

  Burkeite        -11.78    -12.47   -0.69  Na6CO3(SO4)2
  CO2(g)            1.68     -0.42   -2.10  CO2	 Pressure  52.5 atm, phi 0.902
  H2O(g)            0.54     -0.02   -0.56  H2O	 Pressure   4.4 atm, phi 0.777
  Mirabilite       -2.05     -1.97    0.08  Na2SO4:10H2O
  Nahcolite        -2.43    -13.14  -10.71  NaHCO3
  Natron           -8.08     -9.05   -0.97  Na2CO3:10H2O
  Thenardite       -0.76     -1.80   -1.04  Na2SO4
  Trona           -10.71    -22.05  -11.34  Na3H(CO3)2:2H2O

**For a gas, SI = log10(fugacity). Fugacity = pressure * phi / 1 atm.
  For ideal gases, phi = 1.

Reaction step 6.

Using solution 1.	
Using pure phase assemblage 1.	
Using gas phase 1.	
Using reaction 1.	

Reaction 1.	

	  2.400e+00 moles of the following reaction have been added:

	                 Relative
	Reactant            moles

	CO2                  1.00000

	                 Relative
	Element             moles
	C                    1.00000
	O                    2.00000

-----------------------------------Gas phase-----------------------------------

Total pressure: 66.86      atmospheres          (Peng-Robinson calculation)
    Gas volume:   1.00e+00 liters
  Molar volume:   4.42e-01 liters/mole
   P * Vm / RT:  0.87089  (Compressibility Factor Z) 

                                                        Moles in gas
                                            ----------------------------------
Component         log P           P    phi     Initial       Final       Delta

CO2(g)             1.79   6.219e+01  0.887   0.000e+00   2.106e+00   2.106e+00
H2O(g)             0.67   4.662e+00  0.744   0.000e+00   1.579e-01   1.579e-01

-----------------------------Solution composition------------------------------

	Elements           Molality       Moles

	C                 2.944e-01   2.935e-01
	Na                2.006e+00   2.000e+00
	S                 1.003e+00   1.000e+00

----------------------------Description of solution----------------------------

                                       pH  =   4.342      Charge balance
                                       pe  =   4.000      Adjusted to redox equilibrium
      Specific Conductance (µS/cm, 140°C)  = 404900
                          Density (g/cm³)  =   1.03779
                               Volume (L)  =   1.11017
                        Viscosity (mPa s)  =   0.29421
                        Activity of water  =   0.960
                 Ionic strength (mol/kgw)  =   3.002e+00
                       Mass of water (kg)  =   9.970e-01
                 Total alkalinity (eq/kg)  =   8.593e-13
                       Total CO2 (mol/kg)  =   2.944e-01
                         Temperature (°C)  = 140.00
                           Pressure (atm)  = 66.86
                  Electrical balance (eq)  =   3.105e-09
 Percent error, 100*(Cat-|An|)/(Cat+|An|)  =   0.00
                               Iterations  =  43
                         Gamma iterations  =   5
                      Osmotic coefficient  =   0.68577
                         Density of water  =   0.92614
                                  Total H  = 1.106967e+02
                                  Total O  = 5.993544e+01

----------------------------Distribution of species----------------------------

                                                    MacInnes  MacInnes
                                MacInnes       Log       Log       Log    mole V
   Species          Molality    Activity  Molality  Activity     Gamma   cm³/mol

   H+              1.769e-04   4.545e-05    -3.752    -4.342    -0.590      0.00
   OH-             7.765e-08   4.165e-08    -7.110    -7.380    -0.271     -1.92
   H2O             5.551e+01   9.600e-01     1.744    -0.018     0.000     19.45
C(4)          2.944e-01
   CO2             2.870e-01   4.353e-01    -0.542    -0.361     0.181     43.02
   HCO3-           7.426e-03   2.061e-03    -2.129    -2.686    -0.557     27.10
   CO3-2           4.462e-08   2.217e-09    -7.350    -8.654    -1.304     -2.94
Na            2.006e+00
   Na+             2.006e+00   7.849e-01     0.302    -0.105    -0.408      2.12
S(6)          1.003e+00
   SO4-2           9.957e-01   2.635e-02    -0.002    -1.579    -1.577     16.68
   HSO4-           7.249e-03   2.824e-03    -2.140    -2.549    -0.409     42.97

------------------------------Saturation indices-------------------------------

  Phase               SI** log IAP   log K(413 K,  67 atm)

  Burkeite        -11.76    -12.44   -0.68  Na6CO3(SO4)2
  CO2(g)            1.74     -0.36   -2.10  CO2	 Pressure  62.2 atm, phi 0.887
  H2O(g)            0.54     -0.02   -0.56  H2O	 Pressure   4.7 atm, phi 0.744
  Mirabilite       -2.05     -1.97    0.08  Na2SO4:10H2O
  Nahcolite        -2.39    -13.10  -10.71  NaHCO3
  Natron           -8.05     -9.04   -0.99  Na2CO3:10H2O
  Thenardite       -0.75     -1.79   -1.04  Na2SO4
  Trona           -10.67    -22.00  -11.33  Na3H(CO3)2:2H2O

**For a gas, SI = log10(fugacity). Fugacity = pressure * phi / 1 atm.
  For ideal gases, phi = 1.

Reaction step 7.

Using solution 1.	
Using pure phase assemblage 1.	
Using gas phase 1.	
Using reaction 1.	

Reaction 1.	

	  2.800e+00 moles of the following reaction have been added:

	                 Relative
	Reactant            moles

	CO2                  1.00000

	                 Relative
	Element             moles
	C                    1.00000
	O                    2.00000

-----------------------------------Gas phase-----------------------------------

Total pressure: 76.50      atmospheres          (Peng-Robinson calculation)
    Gas volume:   1.00e+00 liters
  Molar volume:   3.79e-01 liters/mole
   P * Vm / RT:  0.85508  (Compressibility Factor Z) 

                                                        Moles in gas
                                            ----------------------------------
Component         log P           P    phi     Initial       Final       Delta

CO2(g)             1.86   7.161e+01  0.872   0.000e+00   2.470e+00   2.470e+00
H2O(g)             0.69   4.885e+00  0.713   0.000e+00   1.685e-01   1.685e-01

-----------------------------Solution composition------------------------------

	Elements           Molality       Moles

	C                 3.307e-01   3.296e-01
	Na                2.006e+00   2.000e+00
	S                 1.003e+00   1.000e+00

----------------------------Description of solution----------------------------

                                       pH  =   4.316      Charge balance
                                       pe  =   4.000      Adjusted to redox equilibrium
      Specific Conductance (µS/cm, 140°C)  = 402163
                          Density (g/cm³)  =   1.03786
                               Volume (L)  =   1.11143
                        Viscosity (mPa s)  =   0.29393
                        Activity of water  =   0.959
                 Ionic strength (mol/kgw)  =   3.002e+00
                       Mass of water (kg)  =   9.968e-01
                 Total alkalinity (eq/kg)  =   1.097e-12
                       Total CO2 (mol/kg)  =   3.307e-01
                         Temperature (°C)  = 140.00
                           Pressure (atm)  = 76.50
                  Electrical balance (eq)  =   3.100e-09
 Percent error, 100*(Cat-|An|)/(Cat+|An|)  =   0.00
                               Iterations  =  45
                         Gamma iterations  =   5
                      Osmotic coefficient  =   0.69388
                         Density of water  =   0.92614
                                  Total H  = 1.106755e+02
                                  Total O  = 5.999702e+01

----------------------------Distribution of species----------------------------

                                                    MacInnes  MacInnes
                                MacInnes       Log       Log       Log    mole V
   Species          Molality    Activity  Molality  Activity     Gamma   cm³/mol

   H+              1.877e-04   4.829e-05    -3.727    -4.316    -0.590      0.00
   OH-             7.338e-08   3.940e-08    -7.134    -7.404    -0.270     -1.98
   H2O             5.551e+01   9.591e-01     1.744    -0.018     0.000     19.45
C(4)          3.307e-01
   CO2             3.228e-01   4.870e-01    -0.491    -0.313     0.179     42.96
   HCO3-           7.879e-03   2.189e-03    -2.104    -2.660    -0.556     27.14
   CO3-2           4.484e-08   2.235e-09    -7.348    -8.651    -1.302     -2.83
Na            2.006e+00
   Na+             2.006e+00   7.900e-01     0.302    -0.102    -0.405      2.14
S(6)          1.003e+00
   SO4-2           9.955e-01   2.654e-02    -0.002    -1.576    -1.574     16.59
   HSO4-           7.692e-03   3.000e-03    -2.114    -2.523    -0.409     42.93

------------------------------Saturation indices-------------------------------

  Phase               SI** log IAP   log K(413 K,  76 atm)

  Burkeite        -11.75    -12.42   -0.67  Na6CO3(SO4)2
  CO2(g)            1.80     -0.31   -2.11  CO2	 Pressure  71.6 atm, phi 0.872
  H2O(g)            0.54     -0.02   -0.56  H2O	 Pressure   4.9 atm, phi 0.713
  Mirabilite       -2.04     -1.96    0.08  Na2SO4:10H2O
  Nahcolite        -2.36    -13.07  -10.70  NaHCO3
  Natron           -8.02     -9.04   -1.01  Na2CO3:10H2O
  Thenardite       -0.75     -1.78   -1.04  Na2SO4
  Trona           -10.64    -21.96  -11.32  Na3H(CO3)2:2H2O

**For a gas, SI = log10(fugacity). Fugacity = pressure * phi / 1 atm.
  For ideal gases, phi = 1.

Reaction step 8.

Using solution 1.	
Using pure phase assemblage 1.	
Using gas phase 1.	
Using reaction 1.	

Reaction 1.	

	  3.200e+00 moles of the following reaction have been added:

	                 Relative
	Reactant            moles

	CO2                  1.00000

	                 Relative
	Element             moles
	C                    1.00000
	O                    2.00000

-----------------------------------Gas phase-----------------------------------

Total pressure: 85.93      atmospheres          (Peng-Robinson calculation)
    Gas volume:   1.00e+00 liters
  Molar volume:   3.32e-01 liters/mole
   P * Vm / RT:  0.84018  (Compressibility Factor Z) 

                                                        Moles in gas
                                            ----------------------------------
Component         log P           P    phi     Initial       Final       Delta

CO2(g)             1.91   8.081e+01  0.858   0.000e+00   2.837e+00   2.837e+00
H2O(g)             0.71   5.116e+00  0.684   0.000e+00   1.796e-01   1.796e-01

-----------------------------Solution composition------------------------------

	Elements           Molality       Moles

	C                 3.643e-01   3.631e-01
	Na                2.007e+00   2.000e+00
	S                 1.003e+00   1.000e+00

----------------------------Description of solution----------------------------

                                       pH  =   4.294      Charge balance
                                       pe  =   4.000      Adjusted to redox equilibrium
      Specific Conductance (µS/cm, 140°C)  = 399475
                          Density (g/cm³)  =   1.03794
                               Volume (L)  =   1.11257
                        Viscosity (mPa s)  =   0.29369
                        Activity of water  =   0.958
                 Ionic strength (mol/kgw)  =   3.002e+00
                       Mass of water (kg)  =   9.966e-01
                 Total alkalinity (eq/kg)  =   1.347e-12
                       Total CO2 (mol/kg)  =   3.643e-01
                         Temperature (°C)  = 140.00
                           Pressure (atm)  = 85.93
                  Electrical balance (eq)  =   3.094e-09
 Percent error, 100*(Cat-|An|)/(Cat+|An|)  =   0.00
                               Iterations  =  45
                         Gamma iterations  =   5
                      Osmotic coefficient  =   0.70122
                         Density of water  =   0.92614
                                  Total H  = 1.106532e+02
                                  Total O  = 6.005275e+01

----------------------------Distribution of species----------------------------

                                                    MacInnes  MacInnes
                                MacInnes       Log       Log       Log    mole V
   Species          Molality    Activity  Molality  Activity     Gamma   cm³/mol

   H+              1.973e-04   5.082e-05    -3.705    -4.294    -0.589      0.00
   OH-             7.001e-08   3.764e-08    -7.155    -7.424    -0.270     -2.04
   H2O             5.551e+01   9.583e-01     1.744    -0.019     0.000     19.45
C(4)          3.643e-01
   CO2             3.560e-01   5.344e-01    -0.449    -0.272     0.176     42.90
   HCO3-           8.280e-03   2.303e-03    -2.082    -2.638    -0.556     27.18
   CO3-2           4.504e-08   2.253e-09    -7.346    -8.647    -1.301     -2.71
Na            2.007e+00
   Na+             2.007e+00   7.949e-01     0.303    -0.100    -0.402      2.16
S(6)          1.003e+00
   SO4-2           9.953e-01   2.672e-02    -0.002    -1.573    -1.571     16.49
   HSO4-           8.083e-03   3.155e-03    -2.092    -2.501    -0.409     42.89

------------------------------Saturation indices-------------------------------

  Phase               SI** log IAP   log K(413 K,  86 atm)

  Burkeite        -11.74    -12.39   -0.65  Na6CO3(SO4)2
  CO2(g)            1.84     -0.27   -2.11  CO2	 Pressure  80.8 atm, phi 0.858
  H2O(g)            0.54     -0.02   -0.56  H2O	 Pressure   5.1 atm, phi 0.684
  Mirabilite       -2.04     -1.96    0.08  Na2SO4:10H2O
  Nahcolite        -2.34    -13.04  -10.70  NaHCO3
  Natron           -7.99     -9.03   -1.04  Na2CO3:10H2O
  Thenardite       -0.74     -1.77   -1.03  Na2SO4
  Trona           -10.61    -21.92  -11.31  Na3H(CO3)2:2H2O

**For a gas, SI = log10(fugacity). Fugacity = pressure * phi / 1 atm.
  For ideal gases, phi = 1.

Reaction step 9.

Using solution 1.	
Using pure phase assemblage 1.	
Using gas phase 1.	
Using reaction 1.	

Reaction 1.	

	  3.600e+00 moles of the following reaction have been added:

	                 Relative
	Reactant            moles

	CO2                  1.00000

	                 Relative
	Element             moles
	C                    1.00000
	O                    2.00000

-----------------------------------Gas phase-----------------------------------

Total pressure: 95.16      atmospheres          (Peng-Robinson calculation)
    Gas volume:   1.00e+00 liters
  Molar volume:   2.94e-01 liters/mole
   P * Vm / RT:  0.82620  (Compressibility Factor Z) 

                                                        Moles in gas
                                            ----------------------------------
Component         log P           P    phi     Initial       Final       Delta

CO2(g)             1.95   8.980e+01  0.845   0.000e+00   3.206e+00   3.206e+00
H2O(g)             0.73   5.356e+00  0.656   0.000e+00   1.912e-01   1.912e-01

-----------------------------Solution composition------------------------------

	Elements           Molality       Moles

	C                 3.955e-01   3.941e-01
	Na                2.007e+00   2.000e+00
	S                 1.004e+00   1.000e+00

----------------------------Description of solution----------------------------

                                       pH  =   4.275      Charge balance
                                       pe  =   4.000      Adjusted to redox equilibrium
      Specific Conductance (µS/cm, 140°C)  = 396834
                          Density (g/cm³)  =   1.03802
                               Volume (L)  =   1.11360
                        Viscosity (mPa s)  =   0.29350
                        Activity of water  =   0.957
                 Ionic strength (mol/kgw)  =   3.003e+00
                       Mass of water (kg)  =   9.964e-01
                 Total alkalinity (eq/kg)  =   1.591e-12
                       Total CO2 (mol/kg)  =   3.955e-01
                         Temperature (°C)  = 140.00
                           Pressure (atm)  = 95.16
                  Electrical balance (eq)  =   3.087e-09
 Percent error, 100*(Cat-|An|)/(Cat+|An|)  =   0.00
                               Iterations  =  46
                         Gamma iterations  =   5
                      Osmotic coefficient  =   0.70788
                         Density of water  =   0.92614
                                  Total H  = 1.106301e+02
                                  Total O  = 6.010320e+01

----------------------------Distribution of species----------------------------

                                                    MacInnes  MacInnes
                                MacInnes       Log       Log       Log    mole V
   Species          Molality    Activity  Molality  Activity     Gamma   cm³/mol

   H+              2.059e-04   5.309e-05    -3.686    -4.275    -0.589      0.00
   OH-             6.729e-08   3.622e-08    -7.172    -7.441    -0.269     -2.10
   H2O             5.551e+01   9.575e-01     1.744    -0.019     0.000     19.45
C(4)          3.955e-01
   CO2             3.869e-01   5.780e-01    -0.412    -0.238     0.174     42.85
   HCO3-           8.637e-03   2.405e-03    -2.064    -2.619    -0.555     27.21
   CO3-2           4.522e-08   2.270e-09    -7.345    -8.644    -1.299     -2.60
Na            2.007e+00
   Na+             2.007e+00   7.995e-01     0.303    -0.097    -0.400      2.18
S(6)          1.004e+00
   SO4-2           9.952e-01   2.691e-02    -0.002    -1.570    -1.568     16.40
   HSO4-           8.431e-03   3.294e-03    -2.074    -2.482    -0.408     42.85

------------------------------Saturation indices-------------------------------

  Phase               SI** log IAP   log K(413 K,  95 atm)

  Burkeite        -11.73    -12.37   -0.64  Na6CO3(SO4)2
  CO2(g)            1.88     -0.24   -2.12  CO2	 Pressure  89.8 atm, phi 0.845
  H2O(g)            0.55     -0.02   -0.56  H2O	 Pressure   5.4 atm, phi 0.656
  Mirabilite       -2.03     -1.95    0.08  Na2SO4:10H2O
  Nahcolite        -2.32    -13.02  -10.70  NaHCO3
  Natron           -7.97     -9.03   -1.06  Na2CO3:10H2O
  Thenardite       -0.74     -1.76   -1.03  Na2SO4
  Trona           -10.59    -21.89  -11.30  Na3H(CO3)2:2H2O

**For a gas, SI = log10(fugacity). Fugacity = pressure * phi / 1 atm.
  For ideal gases, phi = 1.

Reaction step 10.

Using solution 1.	
Using pure phase assemblage 1.	
Using gas phase 1.	
Using reaction 1.	

Reaction 1.	

	  4.000e+00 moles of the following reaction have been added:

	                 Relative
	Reactant            moles

	CO2                  1.00000

	                 Relative
	Element             moles
	C                    1.00000
	O                    2.00000

-----------------------------------Gas phase-----------------------------------

Total pressure: 104.21      atmospheres          (Peng-Robinson calculation)
    Gas volume:   1.00e+00 liters
  Molar volume:   2.65e-01 liters/mole
   P * Vm / RT:  0.81312  (Compressibility Factor Z) 

                                                        Moles in gas
                                            ----------------------------------
Component         log P           P    phi     Initial       Final       Delta

CO2(g)             1.99   9.861e+01  0.832   0.000e+00   3.577e+00   3.577e+00
H2O(g)             0.75   5.603e+00  0.630   0.000e+00   2.033e-01   2.033e-01

-----------------------------Solution composition------------------------------

	Elements           Molality       Moles

	C                 4.246e-01   4.229e-01
	Na                2.008e+00   2.000e+00
	S                 1.004e+00   1.000e+00

----------------------------Description of solution----------------------------

                                       pH  =   4.258      Charge balance
                                       pe  =   4.000      Adjusted to redox equilibrium
      Specific Conductance (µS/cm, 140°C)  = 394237
                          Density (g/cm³)  =   1.03811
                               Volume (L)  =   1.11453
                        Viscosity (mPa s)  =   0.29334
                        Activity of water  =   0.957
                 Ionic strength (mol/kgw)  =   3.003e+00
                       Mass of water (kg)  =   9.962e-01
                 Total alkalinity (eq/kg)  =   1.812e-12
                       Total CO2 (mol/kg)  =   4.246e-01
                         Temperature (°C)  = 140.00
                           Pressure (atm)  = 104.21
                  Electrical balance (eq)  =   3.079e-09
 Percent error, 100*(Cat-|An|)/(Cat+|An|)  =   0.00
                               Iterations  =  45
                         Gamma iterations  =   5
                      Osmotic coefficient  =   0.71396
                         Density of water  =   0.92614
                                  Total H  = 1.106060e+02
                                  Total O  = 6.014886e+01

----------------------------Distribution of species----------------------------

                                                    MacInnes  MacInnes
                                MacInnes       Log       Log       Log    mole V
   Species          Molality    Activity  Molality  Activity     Gamma   cm³/mol

   H+              2.137e-04   5.515e-05    -3.670    -4.258    -0.588      0.00
   OH-             6.503e-08   3.504e-08    -7.187    -7.455    -0.269     -2.16
   H2O             5.551e+01   9.568e-01     1.744    -0.019     0.000     19.45
C(4)          4.246e-01
   CO2             4.156e-01   6.182e-01    -0.381    -0.209     0.172     42.80
   HCO3-           8.958e-03   2.497e-03    -2.048    -2.603    -0.555     27.24
   CO3-2           4.540e-08   2.286e-09    -7.343    -8.641    -1.298     -2.49
Na            2.008e+00
   Na+             2.008e+00   8.039e-01     0.303    -0.095    -0.397      2.20
S(6)          1.004e+00
   SO4-2           9.951e-01   2.708e-02    -0.002    -1.567    -1.565     16.31
   HSO4-           8.745e-03   3.420e-03    -2.058    -2.466    -0.408     42.82

------------------------------Saturation indices-------------------------------

  Phase               SI** log IAP   log K(413 K, 104 atm)

  Burkeite        -11.72    -12.34   -0.63  Na6CO3(SO4)2
  CO2(g)            1.91     -0.21   -2.12  CO2	 Pressure  98.6 atm, phi 0.832
  H2O(g)            0.55     -0.02   -0.57  H2O	 Pressure   5.6 atm, phi 0.630
  Mirabilite       -2.03     -1.95    0.08  Na2SO4:10H2O
  Nahcolite        -2.30    -12.99  -10.69  NaHCO3
  Natron           -7.94     -9.02   -1.08  Na2CO3:10H2O
  Thenardite       -0.73     -1.76   -1.02  Na2SO4
  Trona           -10.57    -21.86  -11.30  Na3H(CO3)2:2H2O

**For a gas, SI = log10(fugacity). Fugacity = pressure * phi / 1 atm.
  For ideal gases, phi = 1.

------------------
End of simulation.
------------------

------------------------------------
Reading input data for simulation 2.
------------------------------------

	SOLUTION 1
	 pH 7 charge
	 Na 4e3
	 S(6) 2e3
	 temp 140
	USE reaction 1
	 USE gas_phase 1
	 USE equilibrium_phases 1
	END
-------------------------------------------
Beginning of initial solution calculations.
-------------------------------------------

Initial solution 1.	

-----------------------------Solution composition------------------------------

	Elements           Molality       Moles

	Na                4.000e+00   4.000e+00
	S(6)              2.000e+00   2.000e+00

----------------------------Description of solution----------------------------

                                       pH  =   6.900      Charge balance
                                       pe  =   4.000    
      Specific Conductance (µS/cm, 140°C)  = 627207
                          Density (g/cm³)  =   1.13133
                               Volume (L)  =   1.13503
                        Viscosity (mPa s)  =   0.41246
                        Activity of water  =   0.938
                 Ionic strength (mol/kgw)  =   6.000e+00
                       Mass of water (kg)  =   1.000e+00
                 Total alkalinity (eq/kg)  =   2.316e-14
                         Temperature (°C)  = 140.00
                  Electrical balance (eq)  =   3.543e-09
 Percent error, 100*(Cat-|An|)/(Cat+|An|)  =   0.00
                               Iterations  =  13
                         Gamma iterations  =   5
                      Osmotic coefficient  =   0.58975
                         Density of water  =   0.92614
                                  Total H  = 1.110125e+02
                                  Total O  = 6.350624e+01

----------------------------Distribution of species----------------------------

                                                    MacInnes  MacInnes
                                MacInnes       Log       Log       Log    mole V
   Species          Molality    Activity  Molality  Activity     Gamma   cm³/mol

   OH-             2.623e-05   1.410e-05    -4.581    -4.851    -0.270      4.15
   H+              4.616e-07   1.259e-07    -6.336    -6.900    -0.564      0.00
   H2O             5.551e+01   9.382e-01     1.744    -0.028     0.000     19.45
Na            4.000e+00
   Na+             4.000e+00   1.346e+00     0.602     0.129    -0.473      2.10
S(6)          2.000e+00
   SO4-2           2.000e+00   2.525e-02     0.301    -1.598    -1.899     23.43
   HSO4-           2.577e-05   7.891e-06    -4.589    -5.103    -0.514     44.93

------------------------------Saturation indices-------------------------------

  Phase               SI** log IAP   log K(413 K,   1 atm)

  H2O(g)            0.51     -0.03   -0.54  H2O
  Mirabilite       -1.70     -1.62    0.08  Na2SO4:10H2O
  Thenardite       -0.27     -1.34   -1.07  Na2SO4

**For a gas, SI = log10(fugacity). Fugacity = pressure * phi / 1 atm.
  For ideal gases, phi = 1.

-----------------------------------------
Beginning of batch-reaction calculations.
-----------------------------------------

Reaction step 1.

Using solution 1.	
Using pure phase assemblage 1.	
Using gas phase 1.	
Using reaction 1.	

Reaction 1.	

	  4.000e-01 moles of the following reaction have been added:

	                 Relative
	Reactant            moles

	CO2                  1.00000

	                 Relative
	Element             moles
	C                    1.00000
	O                    2.00000

-----------------------------------Gas phase-----------------------------------

Total pressure: 15.12      atmospheres          (Peng-Robinson calculation)
    Gas volume:   1.00e+00 liters
  Molar volume:   2.16e+00 liters/mole
   P * Vm / RT:  0.96232  (Compressibility Factor Z) 

                                                        Moles in gas
                                            ----------------------------------
Component         log P           P    phi     Initial       Final       Delta

CO2(g)             1.06   1.157e+01  0.975   0.000e+00   3.547e-01   3.547e-01
H2O(g)             0.55   3.546e+00  0.926   0.000e+00   1.087e-01   1.087e-01

-----------------------------Solution composition------------------------------

	Elements           Molality       Moles

	C                 4.539e-02   4.530e-02
	Na                4.008e+00   4.000e+00
	S                 2.004e+00   2.000e+00

----------------------------Description of solution----------------------------

                                       pH  =   4.616      Charge balance
                                       pe  =   4.000      Adjusted to redox equilibrium
      Specific Conductance (µS/cm, 140°C)  = 623607
                          Density (g/cm³)  =   1.13191
                               Volume (L)  =   1.13448
                        Viscosity (mPa s)  =   0.41243
                        Activity of water  =   0.937
                 Ionic strength (mol/kgw)  =   6.008e+00
                       Mass of water (kg)  =   9.980e-01
                 Total alkalinity (eq/kg)  =   9.851e-14
                       Total CO2 (mol/kg)  =   4.539e-02
                         Temperature (°C)  = 140.00
                           Pressure (atm)  = 15.12
                  Electrical balance (eq)  =   3.542e-09
 Percent error, 100*(Cat-|An|)/(Cat+|An|)  =   0.00
                               Iterations  =  34
                         Gamma iterations  =   4
                      Osmotic coefficient  =   0.59849
                         Density of water  =   0.92614
                                  Total H  = 1.107951e+02
                                  Total O  = 6.348815e+01

----------------------------Distribution of species----------------------------

                                                    MacInnes  MacInnes
                                MacInnes       Log       Log       Log    mole V
   Species          Molality    Activity  Molality  Activity     Gamma   cm³/mol

   H+              8.824e-05   2.420e-05    -4.054    -4.616    -0.562      0.00
   OH-             1.369e-07   7.370e-08    -6.864    -7.133    -0.269      4.04
   H2O             5.551e+01   9.368e-01     1.744    -0.028     0.000     19.45
C(4)          4.539e-02
   CO2             4.043e-02   9.505e-02    -1.393    -1.022     0.371     43.33
   HCO3-           4.966e-03   7.808e-04    -2.304    -3.107    -0.803     29.31
   CO3-2           3.079e-08   1.507e-09    -7.512    -8.822    -1.310     -0.72
Na            4.008e+00
   Na+             4.008e+00   1.359e+00     0.603     0.133    -0.470      2.13
S(6)          2.004e+00
   SO4-2           1.999e+00   2.511e-02     0.301    -1.600    -1.901     23.20
   HSO4-           4.877e-03   1.495e-03    -2.312    -2.825    -0.514     44.85

------------------------------Saturation indices-------------------------------

  Phase               SI** log IAP   log K(413 K,  15 atm)

  Burkeite        -10.47    -11.22   -0.76  Na6CO3(SO4)2
  CO2(g)            1.05     -1.02   -2.07  CO2	 Pressure  11.6 atm, phi 0.975
  H2O(g)            0.52     -0.03   -0.54  H2O	 Pressure   3.5 atm, phi 0.926
  Mirabilite       -1.70     -1.62    0.08  Na2SO4:10H2O
  Nahcolite        -2.57    -13.30  -10.74  NaHCO3
  Natron           -7.98     -8.84   -0.86  Na2CO3:10H2O
  Thenardite       -0.27     -1.33   -1.06  Na2SO4
  Trona           -10.54    -21.92  -11.37  Na3H(CO3)2:2H2O

**For a gas, SI = log10(fugacity). Fugacity = pressure * phi / 1 atm.
  For ideal gases, phi = 1.

Reaction step 2.

Using solution 1.	
Using pure phase assemblage 1.	
Using gas phase 1.	
Using reaction 1.	

Reaction 1.	

	  8.000e-01 moles of the following reaction have been added:

	                 Relative
	Reactant            moles

	CO2                  1.00000

	                 Relative
	Element             moles
	C                    1.00000
	O                    2.00000

-----------------------------------Gas phase-----------------------------------

Total pressure: 26.60      atmospheres          (Peng-Robinson calculation)
    Gas volume:   1.00e+00 liters
  Molar volume:   1.20e+00 liters/mole
   P * Vm / RT:  0.94178  (Compressibility Factor Z) 

                                                        Moles in gas
                                            ----------------------------------
Component         log P           P    phi     Initial       Final       Delta

CO2(g)             1.36   2.286e+01  0.954   0.000e+00   7.159e-01   7.159e-01
H2O(g)             0.57   3.739e+00  0.883   0.000e+00   1.171e-01   1.171e-01

-----------------------------Solution composition------------------------------

	Elements           Molality       Moles

	C                 8.429e-02   8.410e-02
	Na                4.009e+00   4.000e+00
	S                 2.004e+00   2.000e+00

----------------------------Description of solution----------------------------

                                       pH  =   4.473      Charge balance
                                       pe  =   4.000      Adjusted to redox equilibrium
      Specific Conductance (µS/cm, 140°C)  = 620255
                          Density (g/cm³)  =   1.13209
                               Volume (L)  =   1.13567
                        Viscosity (mPa s)  =   0.41207
                        Activity of water  =   0.936
                 Ionic strength (mol/kgw)  =   6.007e+00
                       Mass of water (kg)  =   9.978e-01
                 Total alkalinity (eq/kg)  =   4.486e-13
                       Total CO2 (mol/kg)  =   8.429e-02
                         Temperature (°C)  = 140.00
                           Pressure (atm)  = 26.60
                  Electrical balance (eq)  =   3.540e-09
 Percent error, 100*(Cat-|An|)/(Cat+|An|)  =   0.00
                               Iterations  =  36
                         Gamma iterations  =   4
                      Osmotic coefficient  =   0.60626
                         Density of water  =   0.92614
                                  Total H  = 1.107783e+02
                                  Total O  = 6.355734e+01

----------------------------Distribution of species----------------------------

                                                    MacInnes  MacInnes
                                MacInnes       Log       Log       Log    mole V
   Species          Molality    Activity  Molality  Activity     Gamma   cm³/mol

   H+              1.223e-04   3.362e-05    -3.913    -4.473    -0.561      0.00
   OH-             9.875e-08   5.326e-08    -7.005    -7.274    -0.268      3.95
   H2O             5.551e+01   9.356e-01     1.744    -0.029     0.000     19.45
C(4)          8.429e-02
   CO2             7.742e-02   1.810e-01    -1.111    -0.742     0.369     43.26
   HCO3-           6.865e-03   1.081e-03    -2.163    -2.966    -0.803     29.34
   CO3-2           3.094e-08   1.517e-09    -7.509    -8.819    -1.310     -0.59
Na            4.009e+00
   Na+             4.009e+00   1.368e+00     0.603     0.136    -0.467      2.16
S(6)          2.004e+00
   SO4-2           1.998e+00   2.521e-02     0.301    -1.598    -1.899     23.01
   HSO4-           6.742e-03   2.069e-03    -2.171    -2.684    -0.513     44.79

------------------------------Saturation indices-------------------------------

  Phase               SI** log IAP   log K(413 K,  27 atm)

  Burkeite        -10.46    -11.20   -0.74  Na6CO3(SO4)2
  CO2(g)            1.34     -0.74   -2.08  CO2	 Pressure  22.9 atm, phi 0.954
  H2O(g)            0.52     -0.03   -0.55  H2O	 Pressure   3.7 atm, phi 0.883
  Mirabilite       -1.69     -1.62    0.08  Na2SO4:10H2O
  Nahcolite        -2.43    -13.16  -10.73  NaHCO3
  Natron           -7.95     -8.84   -0.89  Na2CO3:10H2O
  Thenardite       -0.27     -1.33   -1.06  Na2SO4
  Trona           -10.40    -21.76  -11.36  Na3H(CO3)2:2H2O

**For a gas, SI = log10(fugacity). Fugacity = pressure * phi / 1 atm.
  For ideal gases, phi = 1.

Reaction step 3.

Using solution 1.	
Using pure phase assemblage 1.	
Using gas phase 1.	
Using reaction 1.	

Reaction 1.	

	  1.200e+00 moles of the following reaction have been added:

	                 Relative
	Reactant            moles

	CO2                  1.00000

	                 Relative
	Element             moles
	C                    1.00000
	O                    2.00000

-----------------------------------Gas phase-----------------------------------

Total pressure: 37.72      atmospheres          (Peng-Robinson calculation)
    Gas volume:   1.00e+00 liters
  Molar volume:   8.29e-01 liters/mole
   P * Vm / RT:  0.92177  (Compressibility Factor Z) 

                                                        Moles in gas
                                            ----------------------------------
Component         log P           P    phi     Initial       Final       Delta

CO2(g)             1.53   3.378e+01  0.934   0.000e+00   1.081e+00   1.081e+00
H2O(g)             0.60   3.937e+00  0.843   0.000e+00   1.260e-01   1.260e-01

-----------------------------Solution composition------------------------------

	Elements           Molality       Moles

	C                 1.193e-01   1.190e-01
	Na                4.010e+00   4.000e+00
	S                 2.005e+00   2.000e+00

----------------------------Description of solution----------------------------

                                       pH  =   4.393      Charge balance
                                       pe  =   4.000      Adjusted to redox equilibrium
      Specific Conductance (µS/cm, 140°C)  = 617031
                          Density (g/cm³)  =   1.13227
                               Volume (L)  =   1.13671
                        Viscosity (mPa s)  =   0.41179
                        Activity of water  =   0.934
                 Ionic strength (mol/kgw)  =   6.007e+00
                       Mass of water (kg)  =   9.976e-01
                 Total alkalinity (eq/kg)  =   1.978e-11
                       Total CO2 (mol/kg)  =   1.193e-01
                         Temperature (°C)  = 140.00
                           Pressure (atm)  = 37.72
                  Electrical balance (eq)  =   3.258e-09
 Percent error, 100*(Cat-|An|)/(Cat+|An|)  =   0.00
                               Iterations  =  42
                         Gamma iterations  =   5
                      Osmotic coefficient  =   0.61327
                         Density of water  =   0.92614
                                  Total H  = 1.107605e+02
                                  Total O  = 6.361832e+01

----------------------------Distribution of species----------------------------

                                                    MacInnes  MacInnes
                                MacInnes       Log       Log       Log    mole V
   Species          Molality    Activity  Molality  Activity     Gamma   cm³/mol

   H+              1.467e-04   4.042e-05    -3.834    -4.393    -0.560      0.00
   OH-             8.235e-08   4.448e-08    -7.084    -7.352    -0.267      3.85
   H2O             5.551e+01   9.345e-01     1.744    -0.029     0.000     19.45
C(4)          1.193e-01
   CO2             1.111e-01   2.584e-01    -0.954    -0.588     0.367     43.19
   HCO3-           8.220e-03   1.296e-03    -2.085    -2.887    -0.802     29.36
   CO3-2           3.109e-08   1.528e-09    -7.507    -8.816    -1.309     -0.46
Na            4.010e+00
   Na+             4.010e+00   1.377e+00     0.603     0.139    -0.464      2.18
S(6)          2.005e+00
   SO4-2           1.997e+00   2.533e-02     0.300    -1.596    -1.897     22.82
   HSO4-           8.074e-03   2.481e-03    -2.093    -2.605    -0.512     44.72

------------------------------Saturation indices-------------------------------

  Phase               SI** log IAP   log K(413 K,  38 atm)

  Burkeite        -10.45    -11.18   -0.73  Na6CO3(SO4)2
  CO2(g)            1.50     -0.59   -2.09  CO2	 Pressure  33.8 atm, phi 0.934
  H2O(g)            0.52     -0.03   -0.55  H2O	 Pressure   3.9 atm, phi 0.843
  Mirabilite       -1.69     -1.61    0.08  Na2SO4:10H2O
  Nahcolite        -2.35    -13.07  -10.72  NaHCO3
  Natron           -7.91     -8.83   -0.92  Na2CO3:10H2O
  Thenardite       -0.26     -1.32   -1.05  Na2SO4
  Trona           -10.31    -21.67  -11.36  Na3H(CO3)2:2H2O

**For a gas, SI = log10(fugacity). Fugacity = pressure * phi / 1 atm.
  For ideal gases, phi = 1.

Reaction step 4.

Using solution 1.	
Using pure phase assemblage 1.	
Using gas phase 1.	
Using reaction 1.	

Reaction 1.	

	  1.600e+00 moles of the following reaction have been added:

	                 Relative
	Reactant            moles

	CO2                  1.00000

	                 Relative
	Element             moles
	C                    1.00000
	O                    2.00000

-----------------------------------Gas phase-----------------------------------

Total pressure: 48.50      atmospheres          (Peng-Robinson calculation)
    Gas volume:   1.00e+00 liters
  Molar volume:   6.31e-01 liters/mole
   P * Vm / RT:  0.90269  (Compressibility Factor Z) 

                                                        Moles in gas
                                            ----------------------------------
Component         log P           P    phi     Initial       Final       Delta

CO2(g)             1.65   4.436e+01  0.916   0.000e+00   1.449e+00   1.449e+00
H2O(g)             0.62   4.141e+00  0.806   0.000e+00   1.353e-01   1.353e-01

-----------------------------Solution composition------------------------------

	Elements           Molality       Moles

	C                 1.511e-01   1.507e-01
	Na                4.010e+00   4.000e+00
	S                 2.005e+00   2.000e+00

----------------------------Description of solution----------------------------

                                       pH  =   4.339      Charge balance
                                       pe  =   4.000      Adjusted to redox equilibrium
      Specific Conductance (µS/cm, 140°C)  = 613923
                          Density (g/cm³)  =   1.13245
                               Volume (L)  =   1.13760
                        Viscosity (mPa s)  =   0.41157
                        Activity of water  =   0.933
                 Ionic strength (mol/kgw)  =   6.007e+00
                       Mass of water (kg)  =   9.974e-01
                 Total alkalinity (eq/kg)  =   7.405e-13
                       Total CO2 (mol/kg)  =   1.511e-01
                         Temperature (°C)  = 140.00
                           Pressure (atm)  = 48.50
                  Electrical balance (eq)  =   3.537e-09
 Percent error, 100*(Cat-|An|)/(Cat+|An|)  =   0.00
                               Iterations  =  40
                         Gamma iterations  =   5
                      Osmotic coefficient  =   0.61959
                         Density of water  =   0.92614
                                  Total H  = 1.107418e+02
                                  Total O  = 6.367225e+01

----------------------------Distribution of species----------------------------

                                                    MacInnes  MacInnes
                                MacInnes       Log       Log       Log    mole V
   Species          Molality    Activity  Molality  Activity     Gamma   cm³/mol

   H+              1.659e-04   4.581e-05    -3.780    -4.339    -0.559      0.00
   OH-             7.283e-08   3.940e-08    -7.138    -7.404    -0.267      3.76
   H2O             5.551e+01   9.335e-01     1.744    -0.030     0.000     19.45
C(4)          1.511e-01
   CO2             1.418e-01   3.282e-01    -0.848    -0.484     0.365     43.13
   HCO3-           9.287e-03   1.466e-03    -2.032    -2.834    -0.802     29.39
   CO3-2           3.123e-08   1.539e-09    -7.505    -8.813    -1.307     -0.33
Na            4.010e+00
   Na+             4.010e+00   1.385e+00     0.603     0.141    -0.462      2.20
S(6)          2.005e+00
   SO4-2           1.996e+00   2.545e-02     0.300    -1.594    -1.894     22.64
   HSO4-           9.122e-03   2.806e-03    -2.040    -2.552    -0.512     44.66

------------------------------Saturation indices-------------------------------

  Phase               SI** log IAP   log K(413 K,  48 atm)

  Burkeite        -10.44    -11.15   -0.71  Na6CO3(SO4)2
  CO2(g)            1.61     -0.48   -2.09  CO2	 Pressure  44.4 atm, phi 0.916
  H2O(g)            0.52     -0.03   -0.55  H2O	 Pressure   4.1 atm, phi 0.806
  Mirabilite       -1.69     -1.61    0.08  Na2SO4:10H2O
  Nahcolite        -2.29    -13.01  -10.72  NaHCO3
  Natron           -7.88     -8.83   -0.95  Na2CO3:10H2O
  Thenardite       -0.26     -1.31   -1.05  Na2SO4
  Trona           -10.25    -21.60  -11.35  Na3H(CO3)2:2H2O

**For a gas, SI = log10(fugacity). Fugacity = pressure * phi / 1 atm.
  For ideal gases, phi = 1.

Reaction step 5.

Using solution 1.	
Using pure phase assemblage 1.	
Using gas phase 1.	
Using reaction 1.	

Reaction 1.	

	  2.000e+00 moles of the following reaction have been added:

	                 Relative
	Reactant            moles

	CO2                  1.00000

	                 Relative
	Element             moles
	C                    1.00000
	O                    2.00000

-----------------------------------Gas phase-----------------------------------

Total pressure: 58.95      atmospheres          (Peng-Robinson calculation)
    Gas volume:   1.00e+00 liters
  Molar volume:   5.09e-01 liters/mole
   P * Vm / RT:  0.88462  (Compressibility Factor Z) 

                                                        Moles in gas
                                            ----------------------------------
Component         log P           P    phi     Initial       Final       Delta

CO2(g)             1.74   5.460e+01  0.899   0.000e+00   1.821e+00   1.821e+00
H2O(g)             0.64   4.353e+00  0.771   0.000e+00   1.451e-01   1.451e-01

-----------------------------Solution composition------------------------------

	Elements           Molality       Moles

	C                 1.799e-01   1.794e-01
	Na                4.011e+00   4.000e+00
	S                 2.006e+00   2.000e+00

----------------------------Description of solution----------------------------

                                       pH  =   4.298      Charge balance
                                       pe  =   4.000      Adjusted to redox equilibrium
      Specific Conductance (µS/cm, 140°C)  = 610919
                          Density (g/cm³)  =   1.13264
                               Volume (L)  =   1.13838
                        Viscosity (mPa s)  =   0.41139
                        Activity of water  =   0.933
                 Ionic strength (mol/kgw)  =   6.007e+00
                       Mass of water (kg)  =   9.972e-01
                 Total alkalinity (eq/kg)  =   1.332e-12
                       Total CO2 (mol/kg)  =   1.799e-01
                         Temperature (°C)  = 140.00
                           Pressure (atm)  = 58.95
                  Electrical balance (eq)  =   3.533e-09
 Percent error, 100*(Cat-|An|)/(Cat+|An|)  =   0.00
                               Iterations  =  42
                         Gamma iterations  =   5
                      Osmotic coefficient  =   0.62533
                         Density of water  =   0.92614
                                  Total H  = 1.107222e+02
                                  Total O  = 6.371996e+01

----------------------------Distribution of species----------------------------

                                                    MacInnes  MacInnes
                                MacInnes       Log       Log       Log    mole V
   Species          Molality    Activity  Molality  Activity     Gamma   cm³/mol

   H+              1.819e-04   5.030e-05    -3.740    -4.298    -0.558      0.00
   OH-             6.651e-08   3.603e-08    -7.177    -7.443    -0.266      3.68
   H2O             5.551e+01   9.326e-01     1.744    -0.030     0.000     19.45
C(4)          1.799e-01
   CO2             1.698e-01   3.913e-01    -0.770    -0.407     0.363     43.06
   HCO3-           1.017e-02   1.607e-03    -1.993    -2.794    -0.801     29.41
   CO3-2           3.136e-08   1.550e-09    -7.504    -8.810    -1.306     -0.21
Na            4.011e+00
   Na+             4.011e+00   1.392e+00     0.603     0.144    -0.460      2.22
S(6)          2.006e+00
   SO4-2           1.996e+00   2.559e-02     0.300    -1.592    -1.892     22.47
   HSO4-           9.985e-03   3.076e-03    -2.001    -2.512    -0.511     44.61

------------------------------Saturation indices-------------------------------

  Phase               SI** log IAP   log K(413 K,  59 atm)

  Burkeite        -10.43    -11.13   -0.70  Na6CO3(SO4)2
  CO2(g)            1.69     -0.41   -2.10  CO2	 Pressure  54.6 atm, phi 0.899
  H2O(g)            0.53     -0.03   -0.56  H2O	 Pressure   4.4 atm, phi 0.771
  Mirabilite       -1.68     -1.61    0.08  Na2SO4:10H2O
  Nahcolite        -2.25    -12.96  -10.72  NaHCO3
  Natron           -7.85     -8.83   -0.97  Na2CO3:10H2O
  Thenardite       -0.26     -1.30   -1.05  Na2SO4
  Trona           -10.21    -21.55  -11.34  Na3H(CO3)2:2H2O

**For a gas, SI = log10(fugacity). Fugacity = pressure * phi / 1 atm.
  For ideal gases, phi = 1.

Reaction step 6.

Using solution 1.	
Using pure phase assemblage 1.	
Using gas phase 1.	
Using reaction 1.	

Reaction 1.	

	  2.400e+00 moles of the following reaction have been added:

	                 Relative
	Reactant            moles

	CO2                  1.00000

	                 Relative
	Element             moles
	C                    1.00000
	O                    2.00000

-----------------------------------Gas phase-----------------------------------

Total pressure: 69.11      atmospheres          (Peng-Robinson calculation)
    Gas volume:   1.00e+00 liters
  Molar volume:   4.26e-01 liters/mole
   P * Vm / RT:  0.86756  (Compressibility Factor Z) 

                                                        Moles in gas
                                            ----------------------------------
Component         log P           P    phi     Initial       Final       Delta

CO2(g)             1.81   6.454e+01  0.883   0.000e+00   2.194e+00   2.194e+00
H2O(g)             0.66   4.571e+00  0.737   0.000e+00   1.554e-01   1.554e-01

-----------------------------Solution composition------------------------------

	Elements           Molality       Moles

	C                 2.063e-01   2.057e-01
	Na                4.012e+00   4.000e+00
	S                 2.006e+00   2.000e+00

----------------------------Description of solution----------------------------

                                       pH  =   4.266      Charge balance
                                       pe  =   4.000      Adjusted to redox equilibrium
      Specific Conductance (µS/cm, 140°C)  = 608009
                          Density (g/cm³)  =   1.13283
                               Volume (L)  =   1.13904
                        Viscosity (mPa s)  =   0.41126
                        Activity of water  =   0.932
                 Ionic strength (mol/kgw)  =   6.008e+00
                       Mass of water (kg)  =   9.970e-01
                 Total alkalinity (eq/kg)  =   2.103e-12
                       Total CO2 (mol/kg)  =   2.063e-01
                         Temperature (°C)  = 140.00
                           Pressure (atm)  = 69.11
                  Electrical balance (eq)  =   3.526e-09
 Percent error, 100*(Cat-|An|)/(Cat+|An|)  =   0.00
                               Iterations  =  45
                         Gamma iterations  =   5
                      Osmotic coefficient  =   0.63054
                         Density of water  =   0.92614
                                  Total H  = 1.107017e+02
                                  Total O  = 6.376215e+01

----------------------------Distribution of species----------------------------

                                                    MacInnes  MacInnes
                                MacInnes       Log       Log       Log    mole V
   Species          Molality    Activity  Molality  Activity     Gamma   cm³/mol

   H+              1.954e-04   5.414e-05    -3.709    -4.266    -0.557      0.00
   OH-             6.196e-08   3.361e-08    -7.208    -7.474    -0.266      3.60
   H2O             5.551e+01   9.317e-01     1.744    -0.031     0.000     19.45
C(4)          2.063e-01
   CO2             1.954e-01   4.486e-01    -0.709    -0.348     0.361     43.00
   HCO3-           1.091e-02   1.727e-03    -1.962    -2.763    -0.801     29.44
   CO3-2           3.148e-08   1.561e-09    -7.502    -8.807    -1.305     -0.10
Na            4.012e+00
   Na+             4.012e+00   1.399e+00     0.603     0.146    -0.457      2.24
S(6)          2.006e+00
   SO4-2           1.995e+00   2.572e-02     0.300    -1.590    -1.890     22.31
   HSO4-           1.072e-02   3.305e-03    -1.970    -2.481    -0.511     44.55

------------------------------Saturation indices-------------------------------

  Phase               SI** log IAP   log K(413 K,  69 atm)

  Burkeite        -10.42    -11.11   -0.69  Na6CO3(SO4)2
  CO2(g)            1.76     -0.35   -2.10  CO2	 Pressure  64.5 atm, phi 0.883
  H2O(g)            0.53     -0.03   -0.56  H2O	 Pressure   4.6 atm, phi 0.737
  Mirabilite       -1.68     -1.61    0.08  Na2SO4:10H2O
  Nahcolite        -2.22    -12.93  -10.71  NaHCO3
  Natron           -7.82     -8.82   -1.00  Na2CO3:10H2O
  Thenardite       -0.25     -1.30   -1.04  Na2SO4
  Trona           -10.17    -21.50  -11.33  Na3H(CO3)2:2H2O

**For a gas, SI = log10(fugacity). Fugacity = pressure * phi / 1 atm.
  For ideal gases, phi = 1.

Reaction step 7.

Using solution 1.	
Using pure phase assemblage 1.	
Using gas phase 1.	
Using reaction 1.	

Reaction 1.	

	  2.800e+00 moles of the following reaction have been added:

	                 Relative
	Reactant            moles

	CO2                  1.00000

	                 Relative
	Element             moles
	C                    1.00000
	O                    2.00000

-----------------------------------Gas phase-----------------------------------

Total pressure: 79.00      atmospheres          (Peng-Robinson calculation)
    Gas volume:   1.00e+00 liters
  Molar volume:   3.65e-01 liters/mole
   P * Vm / RT:  0.85151  (Compressibility Factor Z) 

                                                        Moles in gas
                                            ----------------------------------
Component         log P           P    phi     Initial       Final       Delta

CO2(g)             1.87   7.420e+01  0.868   0.000e+00   2.570e+00   2.570e+00
H2O(g)             0.68   4.797e+00  0.706   0.000e+00   1.662e-01   1.662e-01

-----------------------------Solution composition------------------------------

	Elements           Molality       Moles

	C                 2.304e-01   2.297e-01
	Na                4.013e+00   4.000e+00
	S                 2.006e+00   2.000e+00

----------------------------Description of solution----------------------------

                                       pH  =   4.240      Charge balance
                                       pe  =   4.000      Adjusted to redox equilibrium
      Specific Conductance (µS/cm, 140°C)  = 605182
                          Density (g/cm³)  =   1.13302
                               Volume (L)  =   1.13961
                        Viscosity (mPa s)  =   0.41117
                        Activity of water  =   0.931
                 Ionic strength (mol/kgw)  =   6.008e+00
                       Mass of water (kg)  =   9.968e-01
                 Total alkalinity (eq/kg)  =   3.006e-12
                       Total CO2 (mol/kg)  =   2.304e-01
                         Temperature (°C)  = 140.00
                           Pressure (atm)  = 79.00
                  Electrical balance (eq)  =   3.517e-09
 Percent error, 100*(Cat-|An|)/(Cat+|An|)  =   0.00
                               Iterations  =  45
                         Gamma iterations  =   5
                      Osmotic coefficient  =   0.63531
                         Density of water  =   0.92614
                                  Total H  = 1.106802e+02
                                  Total O  = 6.379940e+01

----------------------------Distribution of species----------------------------

                                                    MacInnes  MacInnes
                                MacInnes       Log       Log       Log    mole V
   Species          Molality    Activity  Molality  Activity     Gamma   cm³/mol

   H+              2.072e-04   5.750e-05    -3.684    -4.240    -0.557      0.00
   OH-             5.850e-08   3.177e-08    -7.233    -7.498    -0.265      3.52
   H2O             5.551e+01   9.310e-01     1.744    -0.031     0.000     19.45
C(4)          2.304e-01
   CO2             2.188e-01   5.008e-01    -0.660    -0.300     0.360     42.94
   HCO3-           1.156e-02   1.830e-03    -1.937    -2.737    -0.800     29.46
   CO3-2           3.158e-08   1.572e-09    -7.501    -8.804    -1.303      0.02
Na            4.013e+00
   Na+             4.013e+00   1.406e+00     0.603     0.148    -0.456      2.26
S(6)          2.006e+00
   SO4-2           1.995e+00   2.585e-02     0.300    -1.588    -1.888     22.15
   HSO4-           1.135e-02   3.504e-03    -1.945    -2.455    -0.510     44.50

------------------------------Saturation indices-------------------------------

  Phase               SI** log IAP   log K(413 K,  79 atm)

  Burkeite        -10.41    -11.09   -0.68  Na6CO3(SO4)2
  CO2(g)            1.81     -0.30   -2.11  CO2	 Pressure  74.2 atm, phi 0.868
  H2O(g)            0.53     -0.03   -0.56  H2O	 Pressure   4.8 atm, phi 0.706
  Mirabilite       -1.68     -1.60    0.07  Na2SO4:10H2O
  Nahcolite        -2.19    -12.90  -10.71  NaHCO3
  Natron           -7.79     -8.82   -1.02  Na2CO3:10H2O
  Thenardite       -0.25     -1.29   -1.04  Na2SO4
  Trona           -10.14    -21.47  -11.32  Na3H(CO3)2:2H2O

**For a gas, SI = log10(fugacity). Fugacity = pressure * phi / 1 atm.
  For ideal gases, phi = 1.

Reaction step 8.

Using solution 1.	
Using pure phase assemblage 1.	
Using gas phase 1.	
Using reaction 1.	

Reaction 1.	

	  3.200e+00 moles of the following reaction have been added:

	                 Relative
	Reactant            moles

	CO2                  1.00000

	                 Relative
	Element             moles
	C                    1.00000
	O                    2.00000

-----------------------------------Gas phase-----------------------------------

Total pressure: 88.64      atmospheres          (Peng-Robinson calculation)
    Gas volume:   1.00e+00 liters
  Molar volume:   3.20e-01 liters/mole
   P * Vm / RT:  0.83647  (Compressibility Factor Z) 

                                                        Moles in gas
                                            ----------------------------------
Component         log P           P    phi     Initial       Final       Delta

CO2(g)             1.92   8.361e+01  0.854   0.000e+00   2.948e+00   2.948e+00
H2O(g)             0.70   5.030e+00  0.677   0.000e+00   1.774e-01   1.774e-01

-----------------------------Solution composition------------------------------

	Elements           Molality       Moles

	C                 2.526e-01   2.517e-01
	Na                4.014e+00   4.000e+00
	S                 2.007e+00   2.000e+00

----------------------------Description of solution----------------------------

                                       pH  =   4.218      Charge balance
                                       pe  =   4.000      Adjusted to redox equilibrium
      Specific Conductance (µS/cm, 140°C)  = 602429
                          Density (g/cm³)  =   1.13322
                               Volume (L)  =   1.14009
                        Viscosity (mPa s)  =   0.41110
                        Activity of water  =   0.930
                 Ionic strength (mol/kgw)  =   6.009e+00
                       Mass of water (kg)  =   9.966e-01
                 Total alkalinity (eq/kg)  =   3.993e-12
                       Total CO2 (mol/kg)  =   2.526e-01
                         Temperature (°C)  = 140.00
                           Pressure (atm)  = 88.64
                  Electrical balance (eq)  =   3.506e-09
 Percent error, 100*(Cat-|An|)/(Cat+|An|)  =   0.00
                               Iterations  =  45
                         Gamma iterations  =   5
                      Osmotic coefficient  =   0.63969
                         Density of water  =   0.92614
                                  Total H  = 1.106578e+02
                                  Total O  = 6.383225e+01

----------------------------Distribution of species----------------------------

                                                    MacInnes  MacInnes
                                MacInnes       Log       Log       Log    mole V
   Species          Molality    Activity  Molality  Activity     Gamma   cm³/mol

   H+              2.176e-04   6.047e-05    -3.662    -4.218    -0.556      0.00
   OH-             5.577e-08   3.033e-08    -7.254    -7.518    -0.265      3.44
   H2O             5.551e+01   9.303e-01     1.744    -0.031     0.000     19.45
C(4)          2.526e-01
   CO2             2.404e-01   5.484e-01    -0.619    -0.261     0.358     42.89
   HCO3-           1.212e-02   1.922e-03    -1.916    -2.716    -0.800     29.48
   CO3-2           3.168e-08   1.582e-09    -7.499    -8.801    -1.302      0.13
Na            4.014e+00
   Na+             4.014e+00   1.412e+00     0.604     0.150    -0.454      2.28
S(6)          2.007e+00
   SO4-2           1.995e+00   2.597e-02     0.300    -1.585    -1.885     22.00
   HSO4-           1.191e-02   3.679e-03    -1.924    -2.434    -0.510     44.45

------------------------------Saturation indices-------------------------------

  Phase               SI** log IAP   log K(413 K,  89 atm)

  Burkeite        -10.41    -11.07   -0.67  Na6CO3(SO4)2
  CO2(g)            1.85     -0.26   -2.11  CO2	 Pressure  83.6 atm, phi 0.854
  H2O(g)            0.53     -0.03   -0.56  H2O	 Pressure   5.0 atm, phi 0.677
  Mirabilite       -1.67     -1.60    0.07  Na2SO4:10H2O
  Nahcolite        -2.17    -12.87  -10.70  NaHCO3
  Natron           -7.77     -8.82   -1.05  Na2CO3:10H2O
  Thenardite       -0.25     -1.29   -1.04  Na2SO4
  Trona           -10.12    -21.43  -11.32  Na3H(CO3)2:2H2O

**For a gas, SI = log10(fugacity). Fugacity = pressure * phi / 1 atm.
  For ideal gases, phi = 1.

Reaction step 9.

Using solution 1.	
Using pure phase assemblage 1.	
Using gas phase 1.	
Using reaction 1.	

Reaction 1.	

	  3.600e+00 moles of the following reaction have been added:

	                 Relative
	Reactant            moles

	CO2                  1.00000

	                 Relative
	Element             moles
	C                    1.00000
	O                    2.00000

-----------------------------------Gas phase-----------------------------------

Total pressure: 98.06      atmospheres          (Peng-Robinson calculation)
    Gas volume:   1.00e+00 liters
  Molar volume:   2.84e-01 liters/mole
   P * Vm / RT:  0.82242  (Compressibility Factor Z) 

                                                        Moles in gas
                                            ----------------------------------
Component         log P           P    phi     Initial       Final       Delta

CO2(g)             1.97   9.279e+01  0.841   0.000e+00   3.328e+00   3.328e+00
H2O(g)             0.72   5.271e+00  0.649   0.000e+00   1.890e-01   1.890e-01

-----------------------------Solution composition------------------------------

	Elements           Molality       Moles

	C                 2.730e-01   2.720e-01
	Na                4.015e+00   4.000e+00
	S                 2.007e+00   2.000e+00

----------------------------Description of solution----------------------------

                                       pH  =   4.200      Charge balance
                                       pe  =   4.000      Adjusted to redox equilibrium
      Specific Conductance (µS/cm, 140°C)  = 599738
                          Density (g/cm³)  =   1.13342
                               Volume (L)  =   1.14049
                        Viscosity (mPa s)  =   0.41106
                        Activity of water  =   0.930
                 Ionic strength (mol/kgw)  =   6.010e+00
                       Mass of water (kg)  =   9.964e-01
                 Total alkalinity (eq/kg)  =   5.008e-12
                       Total CO2 (mol/kg)  =   2.730e-01
                         Temperature (°C)  = 140.00
                           Pressure (atm)  = 98.06
                  Electrical balance (eq)  =   3.494e-09
 Percent error, 100*(Cat-|An|)/(Cat+|An|)  =   0.00
                               Iterations  =  45
                         Gamma iterations  =   5
                      Osmotic coefficient  =   0.64372
                         Density of water  =   0.92614
                                  Total H  = 1.106344e+02
                                  Total O  = 6.386116e+01

----------------------------Distribution of species----------------------------

                                                    MacInnes  MacInnes
                                MacInnes       Log       Log       Log    mole V
   Species          Molality    Activity  Molality  Activity     Gamma   cm³/mol

   H+              2.269e-04   6.315e-05    -3.644    -4.200    -0.555      0.00
   OH-             5.356e-08   2.916e-08    -7.271    -7.535    -0.264      3.37
   H2O             5.551e+01   9.296e-01     1.744    -0.032     0.000     19.45
C(4)          2.730e-01
   CO2             2.603e-01   5.922e-01    -0.584    -0.228     0.357     42.83
   HCO3-           1.263e-02   2.004e-03    -1.899    -2.698    -0.800     29.50
   CO3-2           3.177e-08   1.592e-09    -7.498    -8.798    -1.300      0.23
Na            4.015e+00
   Na+             4.015e+00   1.418e+00     0.604     0.152    -0.452      2.30
S(6)          2.007e+00
   SO4-2           1.995e+00   2.610e-02     0.300    -1.583    -1.883     21.85
   HSO4-           1.240e-02   3.835e-03    -1.907    -2.416    -0.510     44.40

------------------------------Saturation indices-------------------------------

  Phase               SI** log IAP   log K(413 K,  98 atm)

  Burkeite        -10.40    -11.06   -0.65  Na6CO3(SO4)2
  CO2(g)            1.89     -0.23   -2.12  CO2	 Pressure  92.8 atm, phi 0.841
  H2O(g)            0.53     -0.03   -0.57  H2O	 Pressure   5.3 atm, phi 0.649
  Mirabilite       -1.67     -1.60    0.07  Na2SO4:10H2O
  Nahcolite        -2.15    -12.85  -10.70  NaHCO3
  Natron           -7.74     -8.81   -1.07  Na2CO3:10H2O
  Thenardite       -0.25     -1.28   -1.03  Na2SO4
  Trona           -10.09    -21.40  -11.31  Na3H(CO3)2:2H2O

**For a gas, SI = log10(fugacity). Fugacity = pressure * phi / 1 atm.
  For ideal gases, phi = 1.

Reaction step 10.

Using solution 1.	
Using pure phase assemblage 1.	
Using gas phase 1.	
Using reaction 1.	

Reaction 1.	

	  4.000e+00 moles of the following reaction have been added:

	                 Relative
	Reactant            moles

	CO2                  1.00000

	                 Relative
	Element             moles
	C                    1.00000
	O                    2.00000

-----------------------------------Gas phase-----------------------------------

Total pressure: 107.30      atmospheres          (Peng-Robinson calculation)
    Gas volume:   1.00e+00 liters
  Molar volume:   2.56e-01 liters/mole
   P * Vm / RT:  0.80935  (Compressibility Factor Z) 

                                                        Moles in gas
                                            ----------------------------------
Component         log P           P    phi     Initial       Final       Delta

CO2(g)             2.01   1.018e+02  0.828   0.000e+00   3.709e+00   3.709e+00
H2O(g)             0.74   5.520e+00  0.622   0.000e+00   2.012e-01   2.012e-01

-----------------------------Solution composition------------------------------

	Elements           Molality       Moles

	C                 2.919e-01   2.907e-01
	Na                4.015e+00   4.000e+00
	S                 2.008e+00   2.000e+00

----------------------------Description of solution----------------------------

                                       pH  =   4.183      Charge balance
                                       pe  =   4.000      Adjusted to redox equilibrium
      Specific Conductance (µS/cm, 140°C)  = 597100
                          Density (g/cm³)  =   1.13362
                               Volume (L)  =   1.14083
                        Viscosity (mPa s)  =   0.41104
                        Activity of water  =   0.929
                 Ionic strength (mol/kgw)  =   6.011e+00
                       Mass of water (kg)  =   9.961e-01
                 Total alkalinity (eq/kg)  =   1.377e-12
                       Total CO2 (mol/kg)  =   2.919e-01
                         Temperature (°C)  = 140.00
                           Pressure (atm)  = 107.30
                  Electrical balance (eq)  =   1.926e-09
 Percent error, 100*(Cat-|An|)/(Cat+|An|)  =   0.00
                               Iterations  =  47
                         Gamma iterations  =   5
                      Osmotic coefficient  =   0.64746
                         Density of water  =   0.92614
                                  Total H  = 1.106101e+02
                                  Total O  = 6.388655e+01

----------------------------Distribution of species----------------------------

                                                    MacInnes  MacInnes
                                MacInnes       Log       Log       Log    mole V
   Species          Molality    Activity  Molality  Activity     Gamma   cm³/mol

   H+              2.352e-04   6.558e-05    -3.628    -4.183    -0.555      0.00
   OH-             5.172e-08   2.819e-08    -7.286    -7.550    -0.264      3.30
   H2O             5.551e+01   9.290e-01     1.744    -0.032     0.000     19.45
C(4)          2.919e-01
   CO2             2.788e-01   6.324e-01    -0.555    -0.199     0.356     42.78
   HCO3-           1.308e-02   2.077e-03    -1.883    -2.683    -0.799     29.52
   CO3-2           3.185e-08   1.601e-09    -7.497    -8.796    -1.299      0.33
Na            4.015e+00
   Na+             4.015e+00   1.423e+00     0.604     0.153    -0.450      2.32
S(6)          2.008e+00
   SO4-2           1.995e+00   2.622e-02     0.300    -1.581    -1.881     21.70
   HSO4-           1.284e-02   3.976e-03    -1.891    -2.401    -0.509     44.35

------------------------------Saturation indices-------------------------------

  Phase               SI** log IAP   log K(413 K, 107 atm)

  Burkeite        -10.39    -11.04   -0.64  Na6CO3(SO4)2
  CO2(g)            1.93     -0.20   -2.12  CO2	 Pressure 101.8 atm, phi 0.828
  H2O(g)            0.54     -0.03   -0.57  H2O	 Pressure   5.5 atm, phi 0.622
  Mirabilite       -1.67     -1.59    0.07  Na2SO4:10H2O
  Nahcolite        -2.13    -12.83  -10.69  NaHCO3
  Natron           -7.71     -8.81   -1.10  Na2CO3:10H2O
  Thenardite       -0.24     -1.27   -1.03  Na2SO4
  Trona           -10.08    -21.38  -11.30  Na3H(CO3)2:2H2O

**For a gas, SI = log10(fugacity). Fugacity = pressure * phi / 1 atm.
  For ideal gases, phi = 1.

------------------
End of simulation.
------------------

------------------------------------
Reading input data for simulation 3.
------------------------------------

