WARNING: Database file from DATABASE keyword is used; command line argument ignored.
   Input file: P_Vm
  Output file: P_Vm.out
Database file: ../database/phreeqc.dat

------------------
Reading data base.
------------------

	SOLUTION_MASTER_SPECIES
	SOLUTION_SPECIES
	PHASES
	GAS_BINARY_PARAMETERS
	EXCHANGE_MASTER_SPECIES
	EXCHANGE_SPECIES
	SURFACE_MASTER_SPECIES
	SURFACE_SPECIES
	MEAN_GAMMAS
	RATES
	END
------------------------------------
Reading input data for simulation 1.
------------------------------------

	DATABASE ../database/phreeqc.dat
	SELECTED_OUTPUT 101
	    file                 P_Vm_101.sel
	USER_PUNCH 101
	    headings Mu SC
	    start
	10 PUNCH STR_F$(MU, 20, 12)
	20 PUNCH STR_F$(SC, 20, 10)
	    end
	SOLUTION_SPECIES
	HS- + H+ = H2S
		log_k	6.994
		delta_h -5.30	kcal
		analytical_expression  -11.17   0.02386  3279.0
		dw	 2.1e-9
		vm  7.81  2.96  -0.46 # supcrit
	2 NO3- + 12 H+ + 10 e- = N2 + 6 H2O
		log_k	207.08
		delta_h -312.130	kcal
		dw	 1.96e-9
		vm 7 # Pray et al., 1952, IEC 44. 1146
	CO3-2 + 2 H+ = CO2 + H2O
		log_k	   16.6767
		delta_h	 -5.738  kcal
		analytical_expression    464.1925    0.09344813  -26986.16	-165.75951   2248628.9
		dw	 1.92e-9
		vm   12.84 -24.3 11.1 1.52  # supcrt modified
	CO3-2 + 10 H+ + 8 e- = CH4 + 3 H2O
		log_k	41.071
		delta_h -61.039 kcal
		dw	 1.85e-9
		vm 7.7
	SOLUTION 1#; -temp 200
	INCREMENTAL_REACTIONS
	GAS_PHASE 1
	 fixed_volume
	 CO2(g) 0
	 H2O(g) 0
	REACTION 1
	 CO2 1
	 27 in 20
	 USER_GRAPH
	 -headings Vm CO2
	 -axis_titles "Gas Molar Volume / (L/mole)" "Gas Pressure / atm"
	 -axis_scale x_axis 0 1
	 -axis_scale y_axis 0 500
	 10 graph_x gas_vm
	 20 graph_y gas_p
	END
-------------------------------------------
Beginning of initial solution calculations.
-------------------------------------------

Initial solution 1.	

-----------------------------Solution composition------------------------------

	Elements           Molality       Moles

	Pure water     

----------------------------Description of solution----------------------------

                                       pH  =   7.000    
                                       pe  =   4.000    
      Specific Conductance (µS/cm,  25°C)  = 0
                          Density (g/cm³)  =   0.99704
                               Volume (L)  =   1.00297
                        Viscosity (mPa s)  =   0.89002
                        Activity of water  =   1.000
                 Ionic strength (mol/kgw)  =   1.007e-07
                       Mass of water (kg)  =   1.000e+00
                 Total alkalinity (eq/kg)  =   1.217e-09
                         Temperature (°C)  =  25.00
                  Electrical balance (eq)  =  -1.217e-09
 Percent error, 100*(Cat-|An|)/(Cat+|An|)  =  -0.60
                               Iterations  =   0
                                  Total H  = 1.110124e+02
                                  Total O  = 5.550622e+01

----------------------------Distribution of species----------------------------

                                               Log       Log       Log    mole V
   Species          Molality    Activity  Molality  Activity     Gamma   cm³/mol

   OH-             1.013e-07   1.012e-07    -6.995    -6.995    -0.000     -4.14
   H+              1.001e-07   1.000e-07    -7.000    -7.000    -0.000      0.00
   H2O             5.551e+01   1.000e+00     1.744     0.000     0.000     18.07
H(0)          1.416e-25
   H2              7.079e-26   7.079e-26   -25.150   -25.150     0.000     14.99
O(0)          0.000e+00
   O2              0.000e+00   0.000e+00   -42.063   -42.063     0.000     30.40

------------------------------Saturation indices-------------------------------

  Phase               SI** log IAP   log K(298 K,   1 atm)

  H2(g)           -22.05    -25.15   -3.10  H2
  H2O(g)           -1.50      0.00    1.50  H2O
  O2(g)           -39.17    -42.06   -2.89  O2

**For a gas, SI = log10(fugacity). Fugacity = pressure * phi / 1 atm.
  For ideal gases, phi = 1.

-----------------------------------------
Beginning of batch-reaction calculations.
-----------------------------------------

Reaction step 1.

Using solution 1.	
Using gas phase 1.	
Using reaction 1.	

Reaction 1.	

	  1.350e+00 moles of the following reaction have been added:

	                 Relative
	Reactant            moles

	CO2                  1.00000

	                 Relative
	Element             moles
	C                    1.00000
	O                    2.00000

-----------------------------------Gas phase-----------------------------------

Total pressure: 17.71      atmospheres          (Peng-Robinson calculation)
    Gas volume:   1.00e+00 liters
  Molar volume:   1.24e+00 liters/mole
   P * Vm / RT:  0.89628  (Compressibility Factor Z) 

                                                        Moles in gas
                                            ----------------------------------
Component         log P           P    phi     Initial       Final       Delta

CO2(g)             1.25   1.767e+01  0.904   0.000e+00   8.059e-01   8.059e-01
H2O(g)            -1.42   3.762e-02  0.838   0.000e+00   1.715e-03   1.715e-03

-----------------------------Solution composition------------------------------

	Elements           Molality       Moles

	C                 5.442e-01   5.441e-01

----------------------------Description of solution----------------------------

                                       pH  =   3.309      Charge balance
                                       pe  =  14.562      Adjusted to redox equilibrium
      Specific Conductance (µS/cm,  25°C)  = 190
                          Density (g/cm³)  =   1.00795
                               Volume (L)  =   1.01584
                        Viscosity (mPa s)  =   0.89042
                        Activity of water  =   0.991
                 Ionic strength (mol/kgw)  =   5.031e-04
                       Mass of water (kg)  =   1.000e+00
                 Total alkalinity (eq/kg)  =   1.216e-09
                       Total CO2 (mol/kg)  =   5.442e-01
                         Temperature (°C)  =  25.00
                           Pressure (atm)  = 17.71
                  Electrical balance (eq)  =  -1.216e-09
 Percent error, 100*(Cat-|An|)/(Cat+|An|)  =  -0.00
                               Iterations  =  46
                                  Total H  = 1.110090e+02
                                  Total O  = 5.659278e+01

----------------------------Distribution of species----------------------------

                                               Log       Log       Log    mole V
   Species          Molality    Activity  Molality  Activity     Gamma   cm³/mol

   H+              5.031e-04   4.908e-04    -3.298    -3.309    -0.011      0.00
   OH-             2.128e-11   2.074e-11   -10.672   -10.683    -0.011     -4.05
   H2O             5.551e+01   9.908e-01     1.744    -0.004     0.000     18.06
C(-4)         0.000e+00
   CH4             0.000e+00   0.000e+00  -118.849  -118.849     0.000     32.22
C(4)          5.442e-01
   CO2             5.345e-01   5.345e-01    -0.272    -0.272     0.000     24.97
   (CO2)2          4.586e-03   4.586e-03    -2.339    -2.339     0.000     68.71
   HCO3-           5.031e-04   4.905e-04    -3.298    -3.309    -0.011     24.59
   CO3-2           5.290e-11   4.781e-11   -10.277   -10.320    -0.044     -4.56
H(0)          2.541e-39
   H2              1.270e-39   1.270e-39   -38.896   -38.896     0.000     15.00
O(0)          5.192e-15
   O2              2.596e-15   2.596e-15   -14.586   -14.586     0.000     30.38

------------------------------Saturation indices-------------------------------

  Phase               SI** log IAP   log K(298 K,  18 atm)

  CH4(g)         -116.04   -118.85   -2.81  CH4
  CO2(g)            1.20     -0.27   -1.48  CO2	 Pressure  17.7 atm, phi 0.904
  H2(g)           -35.79    -38.90   -3.10  H2
  H2O(g)           -1.50     -0.00    1.50  H2O	 Pressure   0.0 atm, phi 0.838
  O2(g)           -11.68    -14.59   -2.90  O2

**For a gas, SI = log10(fugacity). Fugacity = pressure * phi / 1 atm.
  For ideal gases, phi = 1.

Reaction step 2.

Using solution 1.	
Using gas phase 1.	
Using reaction 1.	

Reaction 1.	

	  1.350e+00 moles of the following reaction have been added:

	                 Relative
	Reactant            moles

	CO2                  1.00000

	                 Relative
	Element             moles
	C                    1.00000
	O                    2.00000

-----------------------------------Gas phase-----------------------------------

Total pressure: 33.94      atmospheres          (Peng-Robinson calculation)
    Gas volume:   1.00e+00 liters
  Molar volume:   5.68e-01 liters/mole
   P * Vm / RT:  0.78750  (Compressibility Factor Z) 

                                                        Moles in gas
                                            ----------------------------------
Component         log P           P    phi     Initial       Final       Delta

CO2(g)             1.53   3.389e+01  0.820   8.059e-01   1.759e+00   9.532e-01
H2O(g)            -1.34   4.556e-02  0.695   1.715e-03   2.365e-03   6.492e-04

-----------------------------Solution composition------------------------------

	Elements           Molality       Moles

	C                 9.410e-01   9.410e-01

----------------------------Description of solution----------------------------

                                       pH  =   3.191      Charge balance
                                       pe  =   2.373      Adjusted to redox equilibrium
      Specific Conductance (µS/cm,  25°C)  = 245
                          Density (g/cm³)  =   1.01561
                               Volume (L)  =   1.02537
                        Viscosity (mPa s)  =   0.89119
                        Activity of water  =   0.984
                 Ionic strength (mol/kgw)  =   6.620e-04
                       Mass of water (kg)  =   9.999e-01
                 Total alkalinity (eq/kg)  =   1.216e-09
                       Total CO2 (mol/kg)  =   9.410e-01
                         Temperature (°C)  =  25.00
                           Pressure (atm)  = 33.94
                  Electrical balance (eq)  =  -1.216e-09
 Percent error, 100*(Cat-|An|)/(Cat+|An|)  =  -0.00
                               Iterations  =  39
                                  Total H  = 1.110077e+02
                                  Total O  = 5.738577e+01

----------------------------Distribution of species----------------------------

                                               Log       Log       Log    mole V
   Species          Molality    Activity  Molality  Activity     Gamma   cm³/mol

   H+              6.620e-04   6.437e-04    -3.179    -3.191    -0.012      0.00
   OH-             1.642e-11   1.594e-11   -10.785   -10.797    -0.013     -3.99
   H2O             5.551e+01   9.842e-01     1.744    -0.007     0.000     18.04
C(-4)         6.783e-21
   CH4             6.783e-21   6.784e-21   -20.169   -20.168     0.000     32.22
C(4)          9.410e-01
   CO2             9.138e-01   9.140e-01    -0.039    -0.039     0.000     25.19
   (CO2)2          1.325e-02   1.325e-02    -1.878    -1.878     0.000     68.68
   HCO3-           6.620e-04   6.432e-04    -3.179    -3.192    -0.013     24.65
   CO3-2           5.469e-11   4.873e-11   -10.262   -10.312    -0.050     -4.40
H(0)          1.033e-14
   H2              5.165e-15   5.166e-15   -14.287   -14.287     0.000     15.01
O(0)          0.000e+00
   O2              0.000e+00   0.000e+00   -63.817   -63.817     0.000     30.35

------------------------------Saturation indices-------------------------------

  Phase               SI** log IAP   log K(298 K,  34 atm)

  CH4(g)          -17.35    -20.17   -2.82  CH4
  CO2(g)            1.44     -0.04   -1.48  CO2	 Pressure  33.9 atm, phi 0.820
  H2(g)           -11.18    -14.29   -3.11  H2
  H2O(g)           -1.50     -0.01    1.49  H2O	 Pressure   0.0 atm, phi 0.695
  O2(g)           -60.91    -63.82   -2.91  O2

**For a gas, SI = log10(fugacity). Fugacity = pressure * phi / 1 atm.
  For ideal gases, phi = 1.

Reaction step 3.

Using solution 1.	
Using gas phase 1.	
Using reaction 1.	

Reaction 1.	

	  1.350e+00 moles of the following reaction have been added:

	                 Relative
	Reactant            moles

	CO2                  1.00000

	                 Relative
	Element             moles
	C                    1.00000
	O                    2.00000

-----------------------------------Gas phase-----------------------------------

Total pressure: 47.41      atmospheres          (Peng-Robinson calculation)
    Gas volume:   1.00e+00 liters
  Molar volume:   3.50e-01 liters/mole
   P * Vm / RT:  0.67813  (Compressibility Factor Z) 

                                                        Moles in gas
                                            ----------------------------------
Component         log P           P    phi     Initial       Final       Delta

CO2(g)             1.68   4.735e+01  0.751   1.759e+00   2.854e+00   1.095e+00
H2O(g)            -1.26   5.525e-02  0.577   2.365e-03   3.330e-03   9.652e-04

-----------------------------Solution composition------------------------------

	Elements           Molality       Moles

	C                 1.196e+00   1.196e+00

----------------------------Description of solution----------------------------

                                       pH  =   3.139      Charge balance
                                       pe  =  14.919      Adjusted to redox equilibrium
      Specific Conductance (µS/cm,  25°C)  = 274
                          Density (g/cm³)  =   1.02041
                               Volume (L)  =   1.03151
                        Viscosity (mPa s)  =   0.89187
                        Activity of water  =   0.980
                 Ionic strength (mol/kgw)  =   7.473e-04
                       Mass of water (kg)  =   9.999e-01
                 Total alkalinity (eq/kg)  =   1.216e-09
                       Total CO2 (mol/kg)  =   1.196e+00
                         Temperature (°C)  =  25.00
                           Pressure (atm)  = 47.41
                  Electrical balance (eq)  =  -1.216e-09
 Percent error, 100*(Cat-|An|)/(Cat+|An|)  =  -0.00
                               Iterations  =  33
                                  Total H  = 1.110058e+02
                                  Total O  = 5.789455e+01

----------------------------Distribution of species----------------------------

                                               Log       Log       Log    mole V
   Species          Molality    Activity  Molality  Activity     Gamma   cm³/mol

   H+              7.473e-04   7.254e-04    -3.127    -3.139    -0.013      0.00
   OH-             1.470e-11   1.426e-11   -10.833   -10.846    -0.013     -3.94
   H2O             5.551e+01   9.800e-01     1.744    -0.009     0.000     18.03
C(-4)         0.000e+00
   CH4             0.000e+00   0.000e+00  -120.031  -120.031     0.000     32.22
C(4)          1.196e+00
   CO2             1.153e+00   1.154e+00     0.062     0.062     0.000     25.37
   (CO2)2          2.091e-02   2.091e-02    -1.680    -1.680     0.000     68.65
   HCO3-           7.473e-04   7.248e-04    -3.127    -3.140    -0.013     24.69
   CO3-2           5.593e-11   4.950e-11   -10.252   -10.305    -0.053     -4.27
H(0)          1.050e-39
   H2              5.250e-40   5.251e-40   -39.280   -39.280     0.000     15.02
O(0)          2.887e-14
   O2              1.443e-14   1.444e-14   -13.841   -13.841     0.000     30.33

------------------------------Saturation indices-------------------------------

  Phase               SI** log IAP   log K(298 K,  47 atm)

  CH4(g)         -117.20   -120.03   -2.83  CH4
  CO2(g)            1.55      0.06   -1.49  CO2	 Pressure  47.4 atm, phi 0.751
  H2(g)           -36.17    -39.28   -3.11  H2
  H2O(g)           -1.50     -0.01    1.49  H2O	 Pressure   0.1 atm, phi 0.577
  O2(g)           -10.92    -13.84   -2.92  O2

**For a gas, SI = log10(fugacity). Fugacity = pressure * phi / 1 atm.
  For ideal gases, phi = 1.

Reaction step 4.

Using solution 1.	
Using gas phase 1.	
Using reaction 1.	

Reaction 1.	

	  1.350e+00 moles of the following reaction have been added:

	                 Relative
	Reactant            moles

	CO2                  1.00000

	                 Relative
	Element             moles
	C                    1.00000
	O                    2.00000

-----------------------------------Gas phase-----------------------------------

Total pressure: 57.13      atmospheres          (Peng-Robinson calculation)
    Gas volume:   1.00e+00 liters
  Molar volume:   2.46e-01 liters/mole
   P * Vm / RT:  0.57396  (Compressibility Factor Z) 

                                                        Moles in gas
                                            ----------------------------------
Component         log P           P    phi     Initial       Final       Delta

CO2(g)             1.76   5.707e+01  0.701   2.854e+00   4.064e+00   1.210e+00
H2O(g)            -1.18   6.625e-02  0.483   3.330e-03   4.718e-03   1.388e-03

-----------------------------Solution composition------------------------------

	Elements           Molality       Moles

	C                 1.336e+00   1.336e+00

----------------------------Description of solution----------------------------

                                       pH  =   3.115      Charge balance
                                       pe  =  14.905      Adjusted to redox equilibrium
      Specific Conductance (µS/cm,  25°C)  = 288
                          Density (g/cm³)  =   1.02306
                               Volume (L)  =   1.03486
                        Viscosity (mPa s)  =   0.89229
                        Activity of water  =   0.978
                 Ionic strength (mol/kgw)  =   7.912e-04
                       Mass of water (kg)  =   9.999e-01
                 Total alkalinity (eq/kg)  =   1.216e-09
                       Total CO2 (mol/kg)  =   1.336e+00
                         Temperature (°C)  =  25.00
                           Pressure (atm)  = 57.13
                  Electrical balance (eq)  =  -1.216e-09
 Percent error, 100*(Cat-|An|)/(Cat+|An|)  =  -0.00
                               Iterations  =  30
                                  Total H  = 1.110030e+02
                                  Total O  = 5.817398e+01

----------------------------Distribution of species----------------------------

                                               Log       Log       Log    mole V
   Species          Molality    Activity  Molality  Activity     Gamma   cm³/mol

   H+              7.912e-04   7.675e-04    -3.102    -3.115    -0.013      0.00
   OH-             1.400e-11   1.356e-11   -10.854   -10.868    -0.014     -3.90
   H2O             5.551e+01   9.777e-01     1.744    -0.010     0.000     18.02
C(-4)         0.000e+00
   CH4             0.000e+00   0.000e+00  -119.680  -119.680     0.000     32.22
C(4)          1.336e+00
   CO2             1.284e+00   1.284e+00     0.109     0.109     0.000     25.50
   (CO2)2          2.575e-02   2.575e-02    -1.589    -1.589     0.000     68.63
   HCO3-           7.912e-04   7.668e-04    -3.102    -3.115    -0.014     24.72
   CO3-2           5.676e-11   5.006e-11   -10.246   -10.300    -0.055     -4.18
H(0)          1.247e-39
   H2              6.236e-40   6.237e-40   -39.205   -39.205     0.000     15.03
O(0)          2.016e-14
   O2              1.008e-14   1.008e-14   -13.996   -13.996     0.000     30.32

------------------------------Saturation indices-------------------------------

  Phase               SI** log IAP   log K(298 K,  57 atm)

  CH4(g)         -116.85   -119.68   -2.83  CH4
  CO2(g)            1.60      0.11   -1.49  CO2	 Pressure  57.1 atm, phi 0.701
  H2(g)           -36.09    -39.21   -3.11  H2
  H2O(g)           -1.49     -0.01    1.48  H2O	 Pressure   0.1 atm, phi 0.483
  O2(g)           -11.07    -14.00   -2.92  O2

**For a gas, SI = log10(fugacity). Fugacity = pressure * phi / 1 atm.
  For ideal gases, phi = 1.

Reaction step 5.

Using solution 1.	
Using gas phase 1.	
Using reaction 1.	

Reaction 1.	

	  1.350e+00 moles of the following reaction have been added:

	                 Relative
	Reactant            moles

	CO2                  1.00000

	                 Relative
	Element             moles
	C                    1.00000
	O                    2.00000

-----------------------------------Gas phase-----------------------------------

Total pressure: 62.86      atmospheres          (Peng-Robinson calculation)
    Gas volume:   1.00e+00 liters
  Molar volume:   1.87e-01 liters/mole
   P * Vm / RT:  0.47962  (Compressibility Factor Z) 

                                                        Moles in gas
                                            ----------------------------------
Component         log P           P    phi     Initial       Final       Delta

CO2(g)             1.80   6.278e+01  0.671   4.064e+00   5.350e+00   1.287e+00
H2O(g)            -1.11   7.778e-02  0.413   4.718e-03   6.628e-03   1.911e-03

-----------------------------Solution composition------------------------------

	Elements           Molality       Moles

	C                 1.400e+00   1.400e+00

----------------------------Description of solution----------------------------

                                       pH  =   3.104      Charge balance
                                       pe  =  14.928      Adjusted to redox equilibrium
      Specific Conductance (µS/cm,  25°C)  = 294
                          Density (g/cm³)  =   1.02426
                               Volume (L)  =   1.03633
                        Viscosity (mPa s)  =   0.89248
                        Activity of water  =   0.977
                 Ionic strength (mol/kgw)  =   8.108e-04
                       Mass of water (kg)  =   9.999e-01
                 Total alkalinity (eq/kg)  =   1.216e-09
                       Total CO2 (mol/kg)  =   1.400e+00
                         Temperature (°C)  =  25.00
                           Pressure (atm)  = 62.86
                  Electrical balance (eq)  =  -1.216e-09
 Percent error, 100*(Cat-|An|)/(Cat+|An|)  =  -0.00
                               Iterations  =  37
                                  Total H  = 1.109992e+02
                                  Total O  = 5.829869e+01

----------------------------Distribution of species----------------------------

                                               Log       Log       Log    mole V
   Species          Molality    Activity  Molality  Activity     Gamma   cm³/mol

   H+              8.108e-04   7.862e-04    -3.091    -3.104    -0.013      0.00
   OH-             1.372e-11   1.329e-11   -10.862   -10.877    -0.014     -3.88
   H2O             5.551e+01   9.767e-01     1.744    -0.010     0.000     18.02
C(-4)         0.000e+00
   CH4             0.000e+00   0.000e+00  -119.767  -119.767     0.000     32.22
C(4)          1.400e+00
   CO2             1.343e+00   1.343e+00     0.128     0.128     0.000     25.58
   (CO2)2          2.806e-02   2.806e-02    -1.552    -1.552     0.000     68.62
   HCO3-           8.108e-04   7.855e-04    -3.091    -3.105    -0.014     24.74
   CO3-2           5.722e-11   5.040e-11   -10.242   -10.298    -0.055     -4.13
H(0)          1.171e-39
   H2              5.857e-40   5.858e-40   -39.232   -39.232     0.000     15.03
O(0)          2.268e-14
   O2              1.134e-14   1.134e-14   -13.945   -13.945     0.000     30.31

------------------------------Saturation indices-------------------------------

  Phase               SI** log IAP   log K(298 K,  63 atm)

  CH4(g)         -116.93   -119.77   -2.84  CH4
  CO2(g)            1.62      0.13   -1.50  CO2	 Pressure  62.8 atm, phi 0.671
  H2(g)           -36.12    -39.23   -3.12  H2
  H2O(g)           -1.49     -0.01    1.48  H2O	 Pressure   0.1 atm, phi 0.413
  O2(g)           -11.02    -13.95   -2.93  O2

**For a gas, SI = log10(fugacity). Fugacity = pressure * phi / 1 atm.
  For ideal gases, phi = 1.

Reaction step 6.

Using solution 1.	
Using gas phase 1.	
Using reaction 1.	

Reaction 1.	

	  1.350e+00 moles of the following reaction have been added:

	                 Relative
	Reactant            moles

	CO2                  1.00000

	                 Relative
	Element             moles
	C                    1.00000
	O                    2.00000

-----------------------------------Gas phase-----------------------------------

Total pressure: 65.09      atmospheres          (Peng-Robinson calculation)
    Gas volume:   1.00e+00 liters
  Molar volume:   1.49e-01 liters/mole
   P * Vm / RT:  0.39764  (Compressibility Factor Z) 

                                                        Moles in gas
                                            ----------------------------------
Component         log P           P    phi     Initial       Final       Delta

CO2(g)             1.81   6.500e+01  0.658   5.350e+00   6.681e+00   1.331e+00
H2O(g)            -1.05   8.903e-02  0.361   6.628e-03   9.151e-03   2.522e-03

-----------------------------Solution composition------------------------------

	Elements           Molality       Moles

	C                 1.419e+00   1.419e+00

----------------------------Description of solution----------------------------

                                       pH  =   3.101      Charge balance
                                       pe  =  14.922      Adjusted to redox equilibrium
      Specific Conductance (µS/cm,  25°C)  = 296
                          Density (g/cm³)  =   1.02464
                               Volume (L)  =   1.03673
                        Viscosity (mPa s)  =   0.89253
                        Activity of water  =   0.976
                 Ionic strength (mol/kgw)  =   8.168e-04
                       Mass of water (kg)  =   9.998e-01
                 Total alkalinity (eq/kg)  =   1.216e-09
                       Total CO2 (mol/kg)  =   1.419e+00
                         Temperature (°C)  =  25.00
                           Pressure (atm)  = 65.09
                  Electrical balance (eq)  =  -1.216e-09
 Percent error, 100*(Cat-|An|)/(Cat+|An|)  =  -0.00
                               Iterations  =  40
                                  Total H  = 1.109941e+02
                                  Total O  = 5.833452e+01

----------------------------Distribution of species----------------------------

                                               Log       Log       Log    mole V
   Species          Molality    Activity  Molality  Activity     Gamma   cm³/mol

   H+              8.168e-04   7.920e-04    -3.088    -3.101    -0.013      0.00
   OH-             1.365e-11   1.321e-11   -10.865   -10.879    -0.014     -3.87
   H2O             5.551e+01   9.764e-01     1.744    -0.010     0.000     18.02
C(-4)         0.000e+00
   CH4             0.000e+00   0.000e+00  -119.687  -119.687     0.000     32.22
C(4)          1.419e+00
   CO2             1.361e+00   1.361e+00     0.134     0.134     0.000     25.61
   (CO2)2          2.876e-02   2.877e-02    -1.541    -1.541     0.000     68.61
   HCO3-           8.168e-04   7.912e-04    -3.088    -3.102    -0.014     24.75
   CO3-2           5.739e-11   5.053e-11   -10.241   -10.296    -0.055     -4.11
H(0)          1.222e-39
   H2              6.108e-40   6.110e-40   -39.214   -39.214     0.000     15.03
O(0)          2.079e-14
   O2              1.040e-14   1.040e-14   -13.983   -13.983     0.000     30.31

------------------------------Saturation indices-------------------------------

  Phase               SI** log IAP   log K(298 K,  65 atm)

  CH4(g)         -116.85   -119.69   -2.84  CH4
  CO2(g)            1.63      0.13   -1.50  CO2	 Pressure  65.0 atm, phi 0.658
  H2(g)           -36.10    -39.21   -3.12  H2
  H2O(g)           -1.49     -0.01    1.48  H2O	 Pressure   0.1 atm, phi 0.361
  O2(g)           -11.06    -13.98   -2.93  O2

**For a gas, SI = log10(fugacity). Fugacity = pressure * phi / 1 atm.
  For ideal gases, phi = 1.

Reaction step 7.

Using solution 1.	
Using gas phase 1.	
Using reaction 1.	

Reaction 1.	

	  1.350e+00 moles of the following reaction have been added:

	                 Relative
	Reactant            moles

	CO2                  1.00000

	                 Relative
	Element             moles
	C                    1.00000
	O                    2.00000

-----------------------------------Gas phase-----------------------------------

Total pressure: 65.19      atmospheres          (Peng-Robinson calculation)
    Gas volume:   1.00e+00 liters
  Molar volume:   1.24e-01 liters/mole
   P * Vm / RT:  0.33130  (Compressibility Factor Z) 

                                                        Moles in gas
                                            ----------------------------------
Component         log P           P    phi     Initial       Final       Delta

CO2(g)             1.81   6.509e+01  0.657   6.681e+00   8.031e+00   1.349e+00
H2O(g)            -1.00   9.999e-02  0.322   9.151e-03   1.234e-02   3.186e-03

-----------------------------Solution composition------------------------------

	Elements           Molality       Moles

	C                 1.420e+00   1.419e+00

----------------------------Description of solution----------------------------

                                       pH  =   3.101      Charge balance
                                       pe  =  14.947      Adjusted to redox equilibrium
      Specific Conductance (µS/cm,  25°C)  = 296
                          Density (g/cm³)  =   1.02466
                               Volume (L)  =   1.03668
                        Viscosity (mPa s)  =   0.89253
                        Activity of water  =   0.976
                 Ionic strength (mol/kgw)  =   8.170e-04
                       Mass of water (kg)  =   9.998e-01
                 Total alkalinity (eq/kg)  =   1.217e-09
                       Total CO2 (mol/kg)  =   1.420e+00
                         Temperature (°C)  =  25.00
                           Pressure (atm)  = 65.19
                  Electrical balance (eq)  =  -1.216e-09
 Percent error, 100*(Cat-|An|)/(Cat+|An|)  =  -0.00
                               Iterations  =  47
                                  Total H  = 1.109878e+02
                                  Total O  = 5.833241e+01

----------------------------Distribution of species----------------------------

                                               Log       Log       Log    mole V
   Species          Molality    Activity  Molality  Activity     Gamma   cm³/mol

   H+              8.170e-04   7.922e-04    -3.088    -3.101    -0.013      0.00
   OH-             1.365e-11   1.321e-11   -10.865   -10.879    -0.014     -3.87
   H2O             5.551e+01   9.763e-01     1.744    -0.010     0.000     18.02
C(-4)         0.000e+00
   CH4             0.000e+00   0.000e+00  -119.884  -119.884     0.000     32.22
C(4)          1.420e+00
   CO2             1.361e+00   1.361e+00     0.134     0.134     0.000     25.61
   (CO2)2          2.879e-02   2.879e-02    -1.541    -1.541     0.000     68.61
   HCO3-           8.170e-04   7.914e-04    -3.088    -3.102    -0.014     24.75
   CO3-2           5.740e-11   5.054e-11   -10.241   -10.296    -0.055     -4.11
H(0)          1.091e-39
   H2              5.453e-40   5.454e-40   -39.263   -39.263     0.000     15.03
O(0)          2.608e-14
   O2              1.304e-14   1.304e-14   -13.885   -13.885     0.000     30.31

------------------------------Saturation indices-------------------------------

  Phase               SI** log IAP   log K(298 K,  65 atm)

  CH4(g)         -117.05   -119.88   -2.84  CH4
  CO2(g)            1.63      0.13   -1.50  CO2	 Pressure  65.1 atm, phi 0.657
  H2(g)           -36.15    -39.26   -3.12  H2
  H2O(g)           -1.49     -0.01    1.48  H2O	 Pressure   0.1 atm, phi 0.322
  O2(g)           -10.96    -13.88   -2.93  O2

**For a gas, SI = log10(fugacity). Fugacity = pressure * phi / 1 atm.
  For ideal gases, phi = 1.

Reaction step 8.

Using solution 1.	
Using gas phase 1.	
Using reaction 1.	

Reaction 1.	

	  1.350e+00 moles of the following reaction have been added:

	                 Relative
	Reactant            moles

	CO2                  1.00000

	                 Relative
	Element             moles
	C                    1.00000
	O                    2.00000

-----------------------------------Gas phase-----------------------------------

Total pressure: 65.17      atmospheres          (Peng-Robinson calculation)
    Gas volume:   1.00e+00 liters
  Molar volume:   1.06e-01 liters/mole
   P * Vm / RT:  0.28343  (Compressibility Factor Z) 

                                                        Moles in gas
                                            ----------------------------------
Component         log P           P    phi     Initial       Final       Delta

CO2(g)             1.81   6.506e+01  0.657   8.031e+00   9.382e+00   1.352e+00
H2O(g)            -0.95   1.123e-01  0.286   1.234e-02   1.619e-02   3.858e-03

-----------------------------Solution composition------------------------------

	Elements           Molality       Moles

	C                 1.418e+00   1.418e+00

----------------------------Description of solution----------------------------

                                       pH  =   3.101      Charge balance
                                       pe  =  14.945      Adjusted to redox equilibrium
      Specific Conductance (µS/cm,  25°C)  = 296
                          Density (g/cm³)  =   1.02463
                               Volume (L)  =   1.03657
                        Viscosity (mPa s)  =   0.89253
                        Activity of water  =   0.976
                 Ionic strength (mol/kgw)  =   8.166e-04
                       Mass of water (kg)  =   9.997e-01
                 Total alkalinity (eq/kg)  =   1.217e-09
                       Total CO2 (mol/kg)  =   1.418e+00
                         Temperature (°C)  =  25.00
                           Pressure (atm)  = 65.17
                  Electrical balance (eq)  =  -1.216e-09
 Percent error, 100*(Cat-|An|)/(Cat+|An|)  =  -0.00
                               Iterations  =  47
                                  Total H  = 1.109800e+02
                                  Total O  = 5.832547e+01

----------------------------Distribution of species----------------------------

                                               Log       Log       Log    mole V
   Species          Molality    Activity  Molality  Activity     Gamma   cm³/mol

   H+              8.166e-04   7.918e-04    -3.088    -3.101    -0.013      0.00
   OH-             1.365e-11   1.322e-11   -10.865   -10.879    -0.014     -3.87
   H2O             5.551e+01   9.764e-01     1.744    -0.010     0.000     18.02
C(-4)         0.000e+00
   CH4             0.000e+00   0.000e+00  -119.875  -119.874     0.000     32.22
C(4)          1.418e+00
   CO2             1.360e+00   1.360e+00     0.134     0.134     0.000     25.61
   (CO2)2          2.873e-02   2.873e-02    -1.542    -1.542     0.000     68.61
   HCO3-           8.166e-04   7.911e-04    -3.088    -3.102    -0.014     24.75
   CO3-2           5.740e-11   5.053e-11   -10.241   -10.296    -0.055     -4.11
H(0)          1.097e-39
   H2              5.485e-40   5.486e-40   -39.261   -39.261     0.000     15.03
O(0)          2.579e-14
   O2              1.289e-14   1.290e-14   -13.890   -13.890     0.000     30.31

------------------------------Saturation indices-------------------------------

  Phase               SI** log IAP   log K(298 K,  65 atm)

  CH4(g)         -117.04   -119.87   -2.84  CH4
  CO2(g)            1.63      0.13   -1.50  CO2	 Pressure  65.1 atm, phi 0.657
  H2(g)           -36.14    -39.26   -3.12  H2
  H2O(g)           -1.49     -0.01    1.48  H2O	 Pressure   0.1 atm, phi 0.286
  O2(g)           -10.96    -13.89   -2.93  O2

**For a gas, SI = log10(fugacity). Fugacity = pressure * phi / 1 atm.
  For ideal gases, phi = 1.

Reaction step 9.

Using solution 1.	
Using gas phase 1.	
Using reaction 1.	

Reaction 1.	

	  1.350e+00 moles of the following reaction have been added:

	                 Relative
	Reactant            moles

	CO2                  1.00000

	                 Relative
	Element             moles
	C                    1.00000
	O                    2.00000

-----------------------------------Gas phase-----------------------------------

Total pressure: 65.15      atmospheres          (Peng-Robinson calculation)
    Gas volume:   1.00e+00 liters
  Molar volume:   9.30e-02 liters/mole
   P * Vm / RT:  0.24758  (Compressibility Factor Z) 

                                                        Moles in gas
                                            ----------------------------------
Component         log P           P    phi     Initial       Final       Delta

CO2(g)             1.81   6.503e+01  0.656   9.382e+00   1.074e+01   1.353e+00
H2O(g)            -0.90   1.261e-01  0.255   1.619e-02   2.082e-02   4.626e-03

-----------------------------Solution composition------------------------------

	Elements           Molality       Moles

	C                 1.415e+00   1.415e+00

----------------------------Description of solution----------------------------

                                       pH  =   3.102      Charge balance
                                       pe  =  14.979      Adjusted to redox equilibrium
      Specific Conductance (µS/cm,  25°C)  = 296
                          Density (g/cm³)  =   1.02458
                               Volume (L)  =   1.03641
                        Viscosity (mPa s)  =   0.89252
                        Activity of water  =   0.976
                 Ionic strength (mol/kgw)  =   8.159e-04
                       Mass of water (kg)  =   9.996e-01
                 Total alkalinity (eq/kg)  =   1.217e-09
                       Total CO2 (mol/kg)  =   1.415e+00
                         Temperature (°C)  =  25.00
                           Pressure (atm)  = 65.15
                  Electrical balance (eq)  =  -1.216e-09
 Percent error, 100*(Cat-|An|)/(Cat+|An|)  =  -0.00
                               Iterations  =  46
                                  Total H  = 1.109708e+02
                                  Total O  = 5.831508e+01

----------------------------Distribution of species----------------------------

                                               Log       Log       Log    mole V
   Species          Molality    Activity  Molality  Activity     Gamma   cm³/mol

   H+              8.159e-04   7.911e-04    -3.088    -3.102    -0.013      0.00
   OH-             1.367e-11   1.323e-11   -10.864   -10.878    -0.014     -3.87
   H2O             5.551e+01   9.764e-01     1.744    -0.010     0.000     18.02
C(-4)         0.000e+00
   CH4             0.000e+00   0.000e+00  -120.147  -120.147     0.000     32.22
C(4)          1.415e+00
   CO2             1.357e+00   1.358e+00     0.133     0.133     0.000     25.61
   (CO2)2          2.862e-02   2.863e-02    -1.543    -1.543     0.000     68.61
   HCO3-           8.159e-04   7.903e-04    -3.088    -3.102    -0.014     24.75
   CO3-2           5.739e-11   5.053e-11   -10.241   -10.296    -0.055     -4.11
H(0)          9.380e-40
   H2              4.690e-40   4.691e-40   -39.329   -39.329     0.000     15.03
O(0)          3.527e-14
   O2              1.764e-14   1.764e-14   -13.754   -13.754     0.000     30.31

------------------------------Saturation indices-------------------------------

  Phase               SI** log IAP   log K(298 K,  65 atm)

  CH4(g)         -117.31   -120.15   -2.84  CH4
  CO2(g)            1.63      0.13   -1.50  CO2	 Pressure  65.0 atm, phi 0.656
  H2(g)           -36.21    -39.33   -3.12  H2
  H2O(g)           -1.49     -0.01    1.48  H2O	 Pressure   0.1 atm, phi 0.255
  O2(g)           -10.83    -13.75   -2.93  O2

**For a gas, SI = log10(fugacity). Fugacity = pressure * phi / 1 atm.
  For ideal gases, phi = 1.

Reaction step 10.

Using solution 1.	
Using gas phase 1.	
Using reaction 1.	

Reaction 1.	

	  1.350e+00 moles of the following reaction have been added:

	                 Relative
	Reactant            moles

	CO2                  1.00000

	                 Relative
	Element             moles
	C                    1.00000
	O                    2.00000

-----------------------------------Gas phase-----------------------------------

Total pressure: 65.13      atmospheres          (Peng-Robinson calculation)
    Gas volume:   1.00e+00 liters
  Molar volume:   8.25e-02 liters/mole
   P * Vm / RT:  0.21972  (Compressibility Factor Z) 

                                                        Moles in gas
                                            ----------------------------------
Component         log P           P    phi     Initial       Final       Delta

CO2(g)             1.81   6.499e+01  0.655   1.074e+01   1.209e+01   1.353e+00
H2O(g)            -0.85   1.414e-01  0.227   2.082e-02   2.631e-02   5.491e-03

-----------------------------Solution composition------------------------------

	Elements           Molality       Moles

	C                 1.412e+00   1.411e+00

----------------------------Description of solution----------------------------

                                       pH  =   3.102      Charge balance
                                       pe  =  14.999      Adjusted to redox equilibrium
      Specific Conductance (µS/cm,  25°C)  = 295
                          Density (g/cm³)  =   1.02453
                               Volume (L)  =   1.03623
                        Viscosity (mPa s)  =   0.89250
                        Activity of water  =   0.976
                 Ionic strength (mol/kgw)  =   8.150e-04
                       Mass of water (kg)  =   9.995e-01
                 Total alkalinity (eq/kg)  =   1.217e-09
                       Total CO2 (mol/kg)  =   1.412e+00
                         Temperature (°C)  =  25.00
                           Pressure (atm)  = 65.13
                  Electrical balance (eq)  =  -1.216e-09
 Percent error, 100*(Cat-|An|)/(Cat+|An|)  =  -0.00
                               Iterations  =  41
                                  Total H  = 1.109598e+02
                                  Total O  = 5.830274e+01

----------------------------Distribution of species----------------------------

                                               Log       Log       Log    mole V
   Species          Molality    Activity  Molality  Activity     Gamma   cm³/mol

   H+              8.150e-04   7.902e-04    -3.089    -3.102    -0.013      0.00
   OH-             1.368e-11   1.325e-11   -10.864   -10.878    -0.014     -3.87
   H2O             5.551e+01   9.765e-01     1.744    -0.010     0.000     18.02
C(-4)         0.000e+00
   CH4             0.000e+00   0.000e+00  -120.310  -120.310     0.000     32.22
C(4)          1.412e+00
   CO2             1.354e+00   1.355e+00     0.132     0.132     0.000     25.61
   (CO2)2          2.850e-02   2.850e-02    -1.545    -1.545     0.000     68.61
   HCO3-           8.150e-04   7.895e-04    -3.089    -3.103    -0.014     24.75
   CO3-2           5.739e-11   5.053e-11   -10.241   -10.296    -0.055     -4.11
H(0)          8.545e-40
   H2              4.272e-40   4.273e-40   -39.369   -39.369     0.000     15.03
O(0)          4.251e-14
   O2              2.125e-14   2.126e-14   -13.673   -13.672     0.000     30.31

------------------------------Saturation indices-------------------------------

  Phase               SI** log IAP   log K(298 K,  65 atm)

  CH4(g)         -117.47   -120.31   -2.84  CH4
  CO2(g)            1.63      0.13   -1.50  CO2	 Pressure  65.0 atm, phi 0.655
  H2(g)           -36.25    -39.37   -3.12  H2
  H2O(g)           -1.49     -0.01    1.48  H2O	 Pressure   0.1 atm, phi 0.227
  O2(g)           -10.75    -13.67   -2.93  O2

**For a gas, SI = log10(fugacity). Fugacity = pressure * phi / 1 atm.
  For ideal gases, phi = 1.

Reaction step 11.

Using solution 1.	
Using gas phase 1.	
Using reaction 1.	

Reaction 1.	

	  1.350e+00 moles of the following reaction have been added:

	                 Relative
	Reactant            moles

	CO2                  1.00000

	                 Relative
	Element             moles
	C                    1.00000
	O                    2.00000

-----------------------------------Gas phase-----------------------------------

Total pressure: 65.10      atmospheres          (Peng-Robinson calculation)
    Gas volume:   1.00e+00 liters
  Molar volume:   7.42e-02 liters/mole
   P * Vm / RT:  0.19747  (Compressibility Factor Z) 

                                                        Moles in gas
                                            ----------------------------------
Component         log P           P    phi     Initial       Final       Delta

CO2(g)             1.81   6.494e+01  0.654   1.209e+01   1.344e+01   1.353e+00
H2O(g)            -0.80   1.583e-01  0.203   2.631e-02   3.276e-02   6.448e-03

-----------------------------Solution composition------------------------------

	Elements           Molality       Moles

	C                 1.409e+00   1.408e+00

----------------------------Description of solution----------------------------

                                       pH  =   3.103      Charge balance
                                       pe  =  15.040      Adjusted to redox equilibrium
      Specific Conductance (µS/cm,  25°C)  = 295
                          Density (g/cm³)  =   1.02448
                               Volume (L)  =   1.03603
                        Viscosity (mPa s)  =   0.89249
                        Activity of water  =   0.977
                 Ionic strength (mol/kgw)  =   8.142e-04
                       Mass of water (kg)  =   9.994e-01
                 Total alkalinity (eq/kg)  =   1.217e-09
                       Total CO2 (mol/kg)  =   1.409e+00
                         Temperature (°C)  =  25.00
                           Pressure (atm)  = 65.10
                  Electrical balance (eq)  =  -1.216e-09
 Percent error, 100*(Cat-|An|)/(Cat+|An|)  =  -0.00
                               Iterations  =  42
                                  Total H  = 1.109469e+02
                                  Total O  = 5.829041e+01

----------------------------Distribution of species----------------------------

                                               Log       Log       Log    mole V
   Species          Molality    Activity  Molality  Activity     Gamma   cm³/mol

   H+              8.142e-04   7.895e-04    -3.089    -3.103    -0.013      0.00
   OH-             1.369e-11   1.326e-11   -10.863   -10.878    -0.014     -3.87
   H2O             5.551e+01   9.765e-01     1.744    -0.010     0.000     18.02
C(-4)         0.000e+00
   CH4             0.000e+00   0.000e+00  -120.644  -120.644     0.000     32.22
C(4)          1.409e+00
   CO2             1.352e+00   1.352e+00     0.131     0.131     0.000     25.61
   (CO2)2          2.839e-02   2.839e-02    -1.547    -1.547     0.000     68.61
   HCO3-           8.142e-04   7.887e-04    -3.089    -3.103    -0.014     24.75
   CO3-2           5.738e-11   5.053e-11   -10.241   -10.296    -0.055     -4.11
H(0)          7.054e-40
   H2              3.527e-40   3.528e-40   -39.453   -39.453     0.000     15.03
O(0)          6.238e-14
   O2              3.119e-14   3.120e-14   -13.506   -13.506     0.000     30.31

------------------------------Saturation indices-------------------------------

  Phase               SI** log IAP   log K(298 K,  65 atm)

  CH4(g)         -117.81   -120.64   -2.84  CH4
  CO2(g)            1.63      0.13   -1.50  CO2	 Pressure  64.9 atm, phi 0.654
  H2(g)           -36.34    -39.45   -3.12  H2
  H2O(g)           -1.49     -0.01    1.48  H2O	 Pressure   0.2 atm, phi 0.203
  O2(g)           -10.58    -13.51   -2.93  O2

**For a gas, SI = log10(fugacity). Fugacity = pressure * phi / 1 atm.
  For ideal gases, phi = 1.

Reaction step 12.

Using solution 1.	
Using gas phase 1.	
Using reaction 1.	

Reaction 1.	

	  1.350e+00 moles of the following reaction have been added:

	                 Relative
	Reactant            moles

	CO2                  1.00000

	                 Relative
	Element             moles
	C                    1.00000
	O                    2.00000

-----------------------------------Gas phase-----------------------------------

Total pressure: 65.10      atmospheres          (Peng-Robinson calculation)
    Gas volume:   1.00e+00 liters
  Molar volume:   6.74e-02 liters/mole
   P * Vm / RT:  0.17938  (Compressibility Factor Z) 

                                                        Moles in gas
                                            ----------------------------------
Component         log P           P    phi     Initial       Final       Delta

CO2(g)             1.81   6.492e+01  0.654   1.344e+01   1.479e+01   1.351e+00
H2O(g)            -0.75   1.766e-01  0.182   3.276e-02   4.024e-02   7.484e-03

-----------------------------Solution composition------------------------------

	Elements           Molality       Moles

	C                 1.408e+00   1.407e+00

----------------------------Description of solution----------------------------

                                       pH  =   3.103      Charge balance
                                       pe  =  15.050      Adjusted to redox equilibrium
      Specific Conductance (µS/cm,  25°C)  = 295
                          Density (g/cm³)  =   1.02446
                               Volume (L)  =   1.03586
                        Viscosity (mPa s)  =   0.89248
                        Activity of water  =   0.977
                 Ionic strength (mol/kgw)  =   8.139e-04
                       Mass of water (kg)  =   9.993e-01
                 Total alkalinity (eq/kg)  =   1.217e-09
                       Total CO2 (mol/kg)  =   1.408e+00
                         Temperature (°C)  =  25.00
                           Pressure (atm)  = 65.10
                  Electrical balance (eq)  =  -1.216e-09
 Percent error, 100*(Cat-|An|)/(Cat+|An|)  =  -0.00
                               Iterations  =  32
                                  Total H  = 1.109319e+02
                                  Total O  = 5.828028e+01

----------------------------Distribution of species----------------------------

                                               Log       Log       Log    mole V
   Species          Molality    Activity  Molality  Activity     Gamma   cm³/mol

   H+              8.139e-04   7.892e-04    -3.089    -3.103    -0.013      0.00
   OH-             1.370e-11   1.326e-11   -10.863   -10.877    -0.014     -3.87
   H2O             5.551e+01   9.765e-01     1.744    -0.010     0.000     18.02
C(-4)         0.000e+00
   CH4             0.000e+00   0.000e+00  -120.723  -120.723     0.000     32.22
C(4)          1.408e+00
   CO2             1.351e+00   1.351e+00     0.131     0.131     0.000     25.61
   (CO2)2          2.834e-02   2.835e-02    -1.548    -1.547     0.000     68.61
   HCO3-           8.139e-04   7.884e-04    -3.089    -3.103    -0.014     24.75
   CO3-2           5.738e-11   5.053e-11   -10.241   -10.296    -0.055     -4.11
H(0)          6.742e-40
   H2              3.371e-40   3.372e-40   -39.472   -39.472     0.000     15.03
O(0)          6.830e-14
   O2              3.415e-14   3.416e-14   -13.467   -13.467     0.000     30.31

------------------------------Saturation indices-------------------------------

  Phase               SI** log IAP   log K(298 K,  65 atm)

  CH4(g)         -117.88   -120.72   -2.84  CH4
  CO2(g)            1.63      0.13   -1.50  CO2	 Pressure  64.9 atm, phi 0.654
  H2(g)           -36.36    -39.47   -3.12  H2
  H2O(g)           -1.49     -0.01    1.48  H2O	 Pressure   0.2 atm, phi 0.182
  O2(g)           -10.54    -13.47   -2.93  O2

**For a gas, SI = log10(fugacity). Fugacity = pressure * phi / 1 atm.
  For ideal gases, phi = 1.

Reaction step 13.

Using solution 1.	
Using gas phase 1.	
Using reaction 1.	

Reaction 1.	

	  1.350e+00 moles of the following reaction have been added:

	                 Relative
	Reactant            moles

	CO2                  1.00000

	                 Relative
	Element             moles
	C                    1.00000
	O                    2.00000

-----------------------------------Gas phase-----------------------------------

Total pressure: 75.02      atmospheres          (Peng-Robinson calculation)
    Gas volume:   1.00e+00 liters
  Molar volume:   6.18e-02 liters/mole
   P * Vm / RT:  0.18964  (Compressibility Factor Z) 

                                                        Moles in gas
                                            ----------------------------------
Component         log P           P    phi     Initial       Final       Delta

CO2(g)             1.87   7.480e+01  0.583   1.479e+01   1.612e+01   1.328e+00
H2O(g)            -0.65   2.234e-01  0.145   4.024e-02   4.815e-02   7.904e-03

-----------------------------Solution composition------------------------------

	Elements           Molality       Moles

	C                 1.430e+00   1.429e+00

----------------------------Description of solution----------------------------

                                       pH  =   3.098      Charge balance
                                       pe  =  15.082      Adjusted to redox equilibrium
      Specific Conductance (µS/cm,  25°C)  = 298
                          Density (g/cm³)  =   1.02510
                               Volume (L)  =   1.03603
                        Viscosity (mPa s)  =   0.89245
                        Activity of water  =   0.976
                 Ionic strength (mol/kgw)  =   8.234e-04
                       Mass of water (kg)  =   9.991e-01
                 Total alkalinity (eq/kg)  =   1.217e-09
                       Total CO2 (mol/kg)  =   1.430e+00
                         Temperature (°C)  =  25.00
                           Pressure (atm)  = 75.02
                  Electrical balance (eq)  =  -1.216e-09
 Percent error, 100*(Cat-|An|)/(Cat+|An|)  =  -0.00
                               Iterations  =  42
                                  Total H  = 1.109161e+02
                                  Total O  = 5.831650e+01

----------------------------Distribution of species----------------------------

                                               Log       Log       Log    mole V
   Species          Molality    Activity  Molality  Activity     Gamma   cm³/mol

   H+              8.234e-04   7.983e-04    -3.084    -3.098    -0.013      0.00
   OH-             1.366e-11   1.322e-11   -10.865   -10.879    -0.014     -3.84
   H2O             5.551e+01   9.762e-01     1.744    -0.010     0.000     18.01
C(-4)         0.000e+00
   CH4             0.000e+00   0.000e+00  -120.939  -120.939     0.000     32.22
C(4)          1.430e+00
   CO2             1.372e+00   1.372e+00     0.137     0.137     0.000     25.74
   (CO2)2          2.905e-02   2.905e-02    -1.537    -1.537     0.000     68.59
   HCO3-           8.234e-04   7.975e-04    -3.084    -3.098    -0.014     24.77
   CO3-2           5.808e-11   5.112e-11   -10.236   -10.291    -0.056     -4.02
H(0)          5.919e-40
   H2              2.960e-40   2.960e-40   -39.529   -39.529     0.000     15.04
O(0)          8.766e-14
   O2              4.383e-14   4.384e-14   -13.358   -13.358     0.000     30.29

------------------------------Saturation indices-------------------------------

  Phase               SI** log IAP   log K(298 K,  75 atm)

  CH4(g)         -118.09   -120.94   -2.84  CH4
  CO2(g)            1.64      0.14   -1.50  CO2	 Pressure  74.8 atm, phi 0.583
  H2(g)           -36.41    -39.53   -3.12  H2
  H2O(g)           -1.49     -0.01    1.48  H2O	 Pressure   0.2 atm, phi 0.145
  O2(g)           -10.43    -13.36   -2.93  O2

**For a gas, SI = log10(fugacity). Fugacity = pressure * phi / 1 atm.
  For ideal gases, phi = 1.

Reaction step 14.

Using solution 1.	
Using gas phase 1.	
Using reaction 1.	

Reaction 1.	

	  1.350e+00 moles of the following reaction have been added:

	                 Relative
	Reactant            moles

	CO2                  1.00000

	                 Relative
	Element             moles
	C                    1.00000
	O                    2.00000

-----------------------------------Gas phase-----------------------------------

Total pressure: 92.19      atmospheres          (Peng-Robinson calculation)
    Gas volume:   1.00e+00 liters
  Molar volume:   5.72e-02 liters/mole
   P * Vm / RT:  0.21539  (Compressibility Factor Z) 

                                                        Moles in gas
                                            ----------------------------------
Component         log P           P    phi     Initial       Final       Delta

CO2(g)             1.96   9.189e+01  0.494   1.612e+01   1.744e+01   1.317e+00
H2O(g)            -0.53   2.985e-01  0.110   4.815e-02   5.665e-02   8.499e-03

-----------------------------Solution composition------------------------------

	Elements           Molality       Moles

	C                 1.464e+00   1.463e+00

----------------------------Description of solution----------------------------

                                       pH  =   3.090      Charge balance
                                       pe  =  15.095      Adjusted to redox equilibrium
      Specific Conductance (µS/cm,  25°C)  = 304
                          Density (g/cm³)  =   1.02610
                               Volume (L)  =   1.03630
                        Viscosity (mPa s)  =   0.89237
                        Activity of water  =   0.976
                 Ionic strength (mol/kgw)  =   8.386e-04
                       Mass of water (kg)  =   9.990e-01
                 Total alkalinity (eq/kg)  =   1.216e-09
                       Total CO2 (mol/kg)  =   1.464e+00
                         Temperature (°C)  =  25.00
                           Pressure (atm)  = 92.19
                  Electrical balance (eq)  =  -1.215e-09
 Percent error, 100*(Cat-|An|)/(Cat+|An|)  =  -0.00
                               Iterations  =  47
                                  Total H  = 1.108991e+02
                                  Total O  = 5.837488e+01

----------------------------Distribution of species----------------------------

                                               Log       Log       Log    mole V
   Species          Molality    Activity  Molality  Activity     Gamma   cm³/mol

   H+              8.386e-04   8.128e-04    -3.076    -3.090    -0.014      0.00
   OH-             1.361e-11   1.318e-11   -10.866   -10.880    -0.014     -3.78
   H2O             5.551e+01   9.756e-01     1.744    -0.011     0.000     18.00
C(-4)         0.000e+00
   CH4             0.000e+00   0.000e+00  -120.982  -120.982     0.000     32.22
C(4)          1.464e+00
   CO2             1.403e+00   1.403e+00     0.147     0.147     0.000     25.96
   (CO2)2          3.009e-02   3.010e-02    -1.522    -1.522     0.000     68.56
   HCO3-           8.386e-04   8.120e-04    -3.076    -3.090    -0.014     24.82
   CO3-2           5.931e-11   5.214e-11   -10.227   -10.283    -0.056     -3.87
H(0)          5.722e-40
   H2              2.861e-40   2.862e-40   -39.543   -39.543     0.000     15.05
O(0)          9.209e-14
   O2              4.605e-14   4.606e-14   -13.337   -13.337     0.000     30.27

------------------------------Saturation indices-------------------------------

  Phase               SI** log IAP   log K(298 K,  92 atm)

  CH4(g)         -118.13   -120.98   -2.85  CH4
  CO2(g)            1.66      0.15   -1.51  CO2	 Pressure  91.9 atm, phi 0.494
  H2(g)           -36.42    -39.54   -3.12  H2
  H2O(g)           -1.48     -0.01    1.47  H2O	 Pressure   0.3 atm, phi 0.110
  O2(g)           -10.40    -13.34   -2.94  O2

**For a gas, SI = log10(fugacity). Fugacity = pressure * phi / 1 atm.
  For ideal gases, phi = 1.

Reaction step 15.

Using solution 1.	
Using gas phase 1.	
Using reaction 1.	

Reaction 1.	

	  1.350e+00 moles of the following reaction have been added:

	                 Relative
	Reactant            moles

	CO2                  1.00000

	                 Relative
	Element             moles
	C                    1.00000
	O                    2.00000

-----------------------------------Gas phase-----------------------------------

Total pressure: 118.95      atmospheres          (Peng-Robinson calculation)
    Gas volume:   1.00e+00 liters
  Molar volume:   5.32e-02 liters/mole
   P * Vm / RT:  0.25852  (Compressibility Factor Z) 

                                                        Moles in gas
                                            ----------------------------------
Component         log P           P    phi     Initial       Final       Delta

CO2(g)             2.07   1.185e+02  0.407   1.744e+01   1.874e+01   1.304e+00
H2O(g)            -0.38   4.147e-01  0.081   5.665e-02   6.557e-02   8.922e-03

-----------------------------Solution composition------------------------------

	Elements           Molality       Moles

	C                 1.510e+00   1.508e+00

----------------------------Description of solution----------------------------

                                       pH  =   3.079      Charge balance
                                       pe  =  15.096      Adjusted to redox equilibrium
      Specific Conductance (µS/cm,  25°C)  = 311
                          Density (g/cm³)  =   1.02753
                               Volume (L)  =   1.03666
                        Viscosity (mPa s)  =   0.89225
                        Activity of water  =   0.975
                 Ionic strength (mol/kgw)  =   8.608e-04
                       Mass of water (kg)  =   9.988e-01
                 Total alkalinity (eq/kg)  =   1.216e-09
                       Total CO2 (mol/kg)  =   1.510e+00
                         Temperature (°C)  =  25.00
                           Pressure (atm)  = 118.95
                  Electrical balance (eq)  =  -1.215e-09
 Percent error, 100*(Cat-|An|)/(Cat+|An|)  =  -0.00
                               Iterations  =  65
                                  Total H  = 1.108813e+02
                                  Total O  = 5.845720e+01

----------------------------Distribution of species----------------------------

                                               Log       Log       Log    mole V
   Species          Molality    Activity  Molality  Activity     Gamma   cm³/mol

   H+              8.608e-04   8.341e-04    -3.065    -3.079    -0.014      0.00
   OH-             1.357e-11   1.313e-11   -10.867   -10.882    -0.014     -3.68
   H2O             5.551e+01   9.748e-01     1.744    -0.011     0.000     17.97
C(-4)         0.000e+00
   CH4             0.000e+00   0.000e+00  -120.909  -120.909     0.000     32.22
C(4)          1.510e+00
   CO2             1.446e+00   1.447e+00     0.160     0.160     0.000     26.30
   (CO2)2          3.150e-02   3.151e-02    -1.502    -1.502     0.000     68.50
   HCO3-           8.608e-04   8.332e-04    -3.065    -3.079    -0.014     24.90
   CO3-2           6.124e-11   5.376e-11   -10.213   -10.270    -0.057     -3.64
H(0)          5.885e-40
   H2              2.943e-40   2.943e-40   -39.531   -39.531     0.000     15.07
O(0)          8.462e-14
   O2              4.231e-14   4.232e-14   -13.374   -13.373     0.000     30.23

------------------------------Saturation indices-------------------------------

  Phase               SI** log IAP   log K(298 K, 119 atm)

  CH4(g)         -118.04   -120.91   -2.87  CH4
  CO2(g)            1.68      0.16   -1.52  CO2	 Pressure 118.5 atm, phi 0.407
  H2(g)           -36.40    -39.53   -3.13  H2
  H2O(g)           -1.48     -0.01    1.47  H2O	 Pressure   0.4 atm, phi 0.081
  O2(g)           -10.42    -13.37   -2.96  O2

**For a gas, SI = log10(fugacity). Fugacity = pressure * phi / 1 atm.
  For ideal gases, phi = 1.

Reaction step 16.

WARNING: Numerical method failed, switching to numerical derivatives.
WARNING: Maximum iterations exceeded, 100

WARNING: Numerical method failed with this set of convergence parameters.

WARNING: Trying smaller step size, pe step size 10, 5 ... 

Using solution 1.	
Using gas phase 1.	
Using reaction 1.	

Reaction 1.	

	  1.350e+00 moles of the following reaction have been added:

	                 Relative
	Reactant            moles

	CO2                  1.00000

	                 Relative
	Element             moles
	C                    1.00000
	O                    2.00000

-----------------------------------Gas phase-----------------------------------

Total pressure: 158.26      atmospheres          (Peng-Robinson calculation)
    Gas volume:   1.00e+00 liters
  Molar volume:   4.97e-02 liters/mole
   P * Vm / RT:  0.32168  (Compressibility Factor Z) 

                                                        Moles in gas
                                            ----------------------------------
Component         log P           P    phi     Initial       Final       Delta

CO2(g)             2.20   1.577e+02  0.332   1.874e+01   2.003e+01   1.292e+00
H2O(g)            -0.23   5.878e-01  0.058   6.557e-02   7.469e-02   9.116e-03

-----------------------------Solution composition------------------------------

	Elements           Molality       Moles

	C                 1.569e+00   1.566e+00

----------------------------Description of solution----------------------------

                                       pH  =   3.064      Charge balance
                                       pe  =  16.346      Adjusted to redox equilibrium
      Specific Conductance (µS/cm,  25°C)  = 322
                          Density (g/cm³)  =   1.02945
                               Volume (L)  =   1.03705
                        Viscosity (mPa s)  =   0.89209
                        Activity of water  =   0.974
                 Ionic strength (mol/kgw)  =   8.917e-04
                       Mass of water (kg)  =   9.986e-01
                 Total alkalinity (eq/kg)  =   1.216e-09
                       Total CO2 (mol/kg)  =   1.569e+00
                         Temperature (°C)  =  25.00
                           Pressure (atm)  = 158.26
                  Electrical balance (eq)  =  -1.215e-09
 Percent error, 100*(Cat-|An|)/(Cat+|An|)  =  -0.00
                               Iterations  =  49 (150 overall)
                                  Total H  = 1.108631e+02
                                  Total O  = 5.856434e+01

----------------------------Distribution of species----------------------------

                                               Log       Log       Log    mole V
   Species          Molality    Activity  Molality  Activity     Gamma   cm³/mol

   H+              8.917e-04   8.636e-04    -3.050    -3.064    -0.014      0.00
   OH-             1.355e-11   1.310e-11   -10.868   -10.883    -0.015     -3.55
   H2O             5.551e+01   9.739e-01     1.744    -0.011     0.000     17.94
C(-4)         0.000e+00
   CH4             0.000e+00   0.000e+00  -130.797  -130.797     0.000     32.22
C(4)          1.569e+00
   CO2             1.501e+00   1.501e+00     0.176     0.176     0.000     26.79
   (CO2)2          3.331e-02   3.331e-02    -1.477    -1.477     0.000     68.42
   HCO3-           8.917e-04   8.627e-04    -3.050    -3.064    -0.014     25.01
   CO3-2           6.414e-11   5.620e-11   -10.193   -10.250    -0.057     -3.30
H(0)          0.000e+00
   H2              0.000e+00   0.000e+00   -42.011   -42.011     0.000     15.09
O(0)          7.393e-09
   O2              3.697e-09   3.697e-09    -8.432    -8.432     0.000     30.18

------------------------------Saturation indices-------------------------------

  Phase               SI** log IAP   log K(298 K, 158 atm)

  CH4(g)         -127.90   -130.80   -2.89  CH4
  CO2(g)            1.72      0.18   -1.54  CO2	 Pressure 157.7 atm, phi 0.332
  H2(g)           -38.87    -42.01   -3.14  H2
  H2O(g)           -1.46     -0.01    1.45  H2O	 Pressure   0.6 atm, phi 0.058
  O2(g)            -5.46     -8.43   -2.98  O2

**For a gas, SI = log10(fugacity). Fugacity = pressure * phi / 1 atm.
  For ideal gases, phi = 1.

Reaction step 17.

WARNING: Numerical method failed, switching to numerical derivatives.
WARNING: Maximum iterations exceeded, 100

WARNING: Numerical method failed with this set of convergence parameters.

WARNING: Trying smaller step size, pe step size 10, 5 ... 

Using solution 1.	
Using gas phase 1.	
Using reaction 1.	

Reaction 1.	

	  1.350e+00 moles of the following reaction have been added:

	                 Relative
	Reactant            moles

	CO2                  1.00000

	                 Relative
	Element             moles
	C                    1.00000
	O                    2.00000

-----------------------------------Gas phase-----------------------------------

Total pressure: 213.89      atmospheres          (Peng-Robinson calculation)
    Gas volume:   1.00e+00 liters
  Molar volume:   4.67e-02 liters/mole
   P * Vm / RT:  0.40856  (Compressibility Factor Z) 

                                                        Moles in gas
                                            ----------------------------------
Component         log P           P    phi     Initial       Final       Delta

CO2(g)             2.33   2.131e+02  0.275   2.003e+01   2.131e+01   1.280e+00
H2O(g)            -0.08   8.368e-01  0.043   7.469e-02   8.371e-02   9.025e-03

-----------------------------Solution composition------------------------------

	Elements           Molality       Moles

	C                 1.639e+00   1.636e+00

----------------------------Description of solution----------------------------

                                       pH  =   3.044      Charge balance
                                       pe  =  16.364      Adjusted to redox equilibrium
      Specific Conductance (µS/cm,  25°C)  = 337
                          Density (g/cm³)  =   1.03189
                               Volume (L)  =   1.03742
                        Viscosity (mPa s)  =   0.89191
                        Activity of water  =   0.973
                 Ionic strength (mol/kgw)  =   9.336e-04
                       Mass of water (kg)  =   9.985e-01
                 Total alkalinity (eq/kg)  =   1.216e-09
                       Total CO2 (mol/kg)  =   1.639e+00
                         Temperature (°C)  =  25.00
                           Pressure (atm)  = 213.89
                  Electrical balance (eq)  =  -1.214e-09
 Percent error, 100*(Cat-|An|)/(Cat+|An|)  =  -0.00
                               Iterations  =  35 (136 overall)
                                  Total H  = 1.108450e+02
                                  Total O  = 5.869516e+01

----------------------------Distribution of species----------------------------

                                               Log       Log       Log    mole V
   Species          Molality    Activity  Molality  Activity     Gamma   cm³/mol

   H+              9.336e-04   9.037e-04    -3.030    -3.044    -0.014      0.00
   OH-             1.357e-11   1.311e-11   -10.868   -10.882    -0.015     -3.36
   H2O             5.551e+01   9.727e-01     1.744    -0.012     0.000     17.90
C(-4)         0.000e+00
   CH4             0.000e+00   0.000e+00  -130.806  -130.806     0.000     32.22
C(4)          1.639e+00
   CO2             1.567e+00   1.567e+00     0.195     0.195     0.000     27.47
   (CO2)2          3.554e-02   3.554e-02    -1.449    -1.449     0.000     68.31
   HCO3-           9.336e-04   9.027e-04    -3.030    -3.044    -0.015     25.17
   CO3-2           6.840e-11   5.978e-11   -10.165   -10.223    -0.059     -2.85
H(0)          0.000e+00
   H2              0.000e+00   0.000e+00   -42.024   -42.024     0.000     15.13
O(0)          7.395e-09
   O2              3.697e-09   3.698e-09    -8.432    -8.432     0.000     30.10

------------------------------Saturation indices-------------------------------

  Phase               SI** log IAP   log K(298 K, 214 atm)

  CH4(g)         -127.88   -130.81   -2.92  CH4
  CO2(g)            1.77      0.20   -1.57  CO2	 Pressure 213.1 atm, phi 0.275
  H2(g)           -38.87    -42.02   -3.16  H2
  H2O(g)           -1.45     -0.01    1.44  H2O	 Pressure   0.8 atm, phi 0.043
  O2(g)            -5.43     -8.43   -3.01  O2

**For a gas, SI = log10(fugacity). Fugacity = pressure * phi / 1 atm.
  For ideal gases, phi = 1.

Reaction step 18.

WARNING: Numerical method failed, switching to numerical derivatives.
WARNING: Maximum iterations exceeded, 100

WARNING: Numerical method failed with this set of convergence parameters.

WARNING: Trying smaller step size, pe step size 10, 5 ... 

Using solution 1.	
Using gas phase 1.	
Using reaction 1.	

Reaction 1.	

	  1.350e+00 moles of the following reaction have been added:

	                 Relative
	Reactant            moles

	CO2                  1.00000

	                 Relative
	Element             moles
	C                    1.00000
	O                    2.00000

-----------------------------------Gas phase-----------------------------------

Total pressure: 290.98      atmospheres          (Peng-Robinson calculation)
    Gas volume:   1.00e+00 liters
  Molar volume:   4.41e-02 liters/mole
   P * Vm / RT:  0.52447  (Compressibility Factor Z) 

                                                        Moles in gas
                                            ----------------------------------
Component         log P           P    phi     Initial       Final       Delta

CO2(g)             2.46   2.898e+02  0.233   2.131e+01   2.258e+01   1.271e+00
H2O(g)             0.07   1.184e+00  0.032   8.371e-02   9.230e-02   8.591e-03

-----------------------------Solution composition------------------------------

	Elements           Molality       Moles

	C                 1.718e+00   1.715e+00

----------------------------Description of solution----------------------------

                                       pH  =   3.019      Charge balance
                                       pe  =  16.388      Adjusted to redox equilibrium
      Specific Conductance (µS/cm,  25°C)  = 357
                          Density (g/cm³)  =   1.03489
                               Volume (L)  =   1.03762
                        Viscosity (mPa s)  =   0.89180
                        Activity of water  =   0.971
                 Ionic strength (mol/kgw)  =   9.901e-04
                       Mass of water (kg)  =   9.983e-01
                 Total alkalinity (eq/kg)  =   1.216e-09
                       Total CO2 (mol/kg)  =   1.718e+00
                         Temperature (°C)  =  25.00
                           Pressure (atm)  = 290.98
                  Electrical balance (eq)  =  -1.214e-09
 Percent error, 100*(Cat-|An|)/(Cat+|An|)  =  -0.00
                               Iterations  =  36 (137 overall)
                                  Total H  = 1.108278e+02
                                  Total O  = 5.884444e+01

----------------------------Distribution of species----------------------------

                                               Log       Log       Log    mole V
   Species          Molality    Activity  Molality  Activity     Gamma   cm³/mol

   H+              9.901e-04   9.576e-04    -3.004    -3.019    -0.014      0.00
   OH-             1.363e-11   1.316e-11   -10.865   -10.881    -0.015     -3.11
   H2O             5.551e+01   9.714e-01     1.744    -0.013     0.000     17.84
C(-4)         0.000e+00
   CH4             0.000e+00   0.000e+00  -130.822  -130.822     0.000     32.22
C(4)          1.718e+00
   CO2             1.641e+00   1.641e+00     0.215     0.215     0.000     28.35
   (CO2)2          3.822e-02   3.823e-02    -1.418    -1.418     0.000     68.16
   HCO3-           9.901e-04   9.565e-04    -3.004    -3.019    -0.015     25.37
   CO3-2           7.460e-11   6.498e-11   -10.127   -10.187    -0.060     -2.24
H(0)          0.000e+00
   H2              0.000e+00   0.000e+00   -42.041   -42.041     0.000     15.17
O(0)          7.396e-09
   O2              3.698e-09   3.699e-09    -8.432    -8.432     0.000     30.00

------------------------------Saturation indices-------------------------------

  Phase               SI** log IAP   log K(298 K, 291 atm)

  CH4(g)         -127.85   -130.82   -2.97  CH4
  CO2(g)            1.83      0.22   -1.61  CO2	 Pressure 289.8 atm, phi 0.233
  H2(g)           -38.86    -42.04   -3.18  H2
  H2O(g)           -1.42     -0.01    1.41  H2O	 Pressure   1.2 atm, phi 0.032
  O2(g)            -5.39     -8.43   -3.05  O2

**For a gas, SI = log10(fugacity). Fugacity = pressure * phi / 1 atm.
  For ideal gases, phi = 1.

Reaction step 19.

WARNING: Numerical method failed, switching to numerical derivatives.
WARNING: Maximum iterations exceeded, 100

WARNING: Numerical method failed with this set of convergence parameters.

WARNING: Trying smaller step size, pe step size 10, 5 ... 

Using solution 1.	
Using gas phase 1.	
Using reaction 1.	

Reaction 1.	

	  1.350e+00 moles of the following reaction have been added:

	                 Relative
	Reactant            moles

	CO2                  1.00000

	                 Relative
	Element             moles
	C                    1.00000
	O                    2.00000

-----------------------------------Gas phase-----------------------------------

Total pressure: 397.06      atmospheres          (Peng-Robinson calculation)
    Gas volume:   1.00e+00 liters
  Molar volume:   4.17e-02 liters/mole
   P * Vm / RT:  0.67751  (Compressibility Factor Z) 

                                                        Moles in gas
                                            ----------------------------------
Component         log P           P    phi     Initial       Final       Delta

CO2(g)             2.60   3.954e+02  0.206   2.258e+01   2.385e+01   1.269e+00
H2O(g)             0.22   1.658e+00  0.024   9.230e-02   1.001e-01   7.749e-03

-----------------------------Solution composition------------------------------

	Elements           Molality       Moles

	C                 1.800e+00   1.796e+00

----------------------------Description of solution----------------------------

                                       pH  =   2.987      Charge balance
                                       pe  =  16.417      Adjusted to redox equilibrium
      Specific Conductance (µS/cm,  25°C)  = 385
                          Density (g/cm³)  =   1.03847
                               Volume (L)  =   1.03735
                        Viscosity (mPa s)  =   0.89192
                        Activity of water  =   0.970
                 Ionic strength (mol/kgw)  =   1.066e-03
                       Mass of water (kg)  =   9.982e-01
                 Total alkalinity (eq/kg)  =   1.216e-09
                       Total CO2 (mol/kg)  =   1.800e+00
                         Temperature (°C)  =  25.00
                           Pressure (atm)  = 397.06
                  Electrical balance (eq)  =  -1.214e-09
 Percent error, 100*(Cat-|An|)/(Cat+|An|)  =  -0.00
                               Iterations  =  37 (138 overall)
                                  Total H  = 1.108123e+02
                                  Total O  = 5.899885e+01

----------------------------Distribution of species----------------------------

                                               Log       Log       Log    mole V
   Species          Molality    Activity  Molality  Activity     Gamma   cm³/mol

   H+              1.066e-03   1.030e-03    -2.972    -2.987    -0.015      0.00
   OH-             1.378e-11   1.329e-11   -10.861   -10.877    -0.016     -2.79
   H2O             5.551e+01   9.701e-01     1.744    -0.013     0.000     17.76
C(-4)         0.000e+00
[...]
   P * Vm / RT:  0.55767  (Compressibility Factor Z) 

                                                        Moles in gas
                                            ----------------------------------
Component         log P           P    phi     Initial       Final       Delta

H2O(g)             0.47   2.977e+00  0.013   2.179e-01   2.182e-01   3.517e-04
H2S(g)             2.56   3.653e+02  0.079   2.668e+01   2.677e+01   9.438e-02

-----------------------------Solution composition------------------------------

	Elements           Molality       Moles

	S                 1.835e+00   1.828e+00

----------------------------Description of solution----------------------------

                                       pH  =   3.334      Charge balance
                                       pe  =  -0.403      Adjusted to redox equilibrium
      Specific Conductance (µS/cm,  25°C)  = 178
                          Density (g/cm³)  =   1.01277
                               Volume (L)  =   1.04501
                        Viscosity (mPa s)  =   0.88722
                        Activity of water  =   0.972
                 Ionic strength (mol/kgw)  =   4.749e-04
                       Mass of water (kg)  =   9.961e-01
                 Total alkalinity (eq/kg)  =   8.238e-10
                         Temperature (°C)  =  25.00
                           Pressure (atm)  = 368.26
                  Electrical balance (eq)  =  -1.206e-09
 Percent error, 100*(Cat-|An|)/(Cat+|An|)  =  -0.00
                               Iterations  = 146
                                  Total H  = 1.142312e+02
                                  Total O  = 5.528799e+01

----------------------------Distribution of species----------------------------

                                               Log       Log       Log    mole V
   Species          Molality    Activity  Molality  Activity     Gamma   cm³/mol

   H+              4.749e-04   4.638e-04    -3.323    -3.334    -0.010      0.00
   OH-             2.964e-11   2.892e-11   -10.528   -10.539    -0.011     -2.88
   H2O             5.551e+01   9.718e-01     1.744    -0.012     0.000     17.78
H(0)          1.549e-09
   H2              7.743e-10   7.744e-10    -9.111    -9.111     0.000     15.21
O(0)          0.000e+00
   O2              0.000e+00   0.000e+00   -74.327   -74.327     0.000     29.91
S(-2)         1.835e+00
   H2S             1.482e+00   1.482e+00     0.171     0.171     0.000     36.57
   (H2S)2          1.762e-01   1.762e-01    -0.754    -0.754     0.000     45.12
   HS-             4.749e-04   4.634e-04    -3.323    -3.334    -0.011     20.75
   S-2             1.816e-13   1.648e-13   -12.741   -12.783    -0.042     (0)  
S(6)          1.936e-10
   SO4-2           1.879e-10   1.705e-10    -9.726    -9.768    -0.042     17.56
   HSO4-           5.663e-12   5.526e-12   -11.247   -11.258    -0.011     39.56

------------------------------Saturation indices-------------------------------

  Phase               SI** log IAP   log K(298 K, 368 atm)

  H2(g)            -5.91     -9.11   -3.20  H2
  H2O(g)           -1.40     -0.01    1.39  H2O	 Pressure   3.0 atm, phi 0.013
  H2S(g)            1.46     -6.67   -8.13  H2S	 Pressure 365.3 atm, phi 0.079
  O2(g)           -71.24    -74.33   -3.09  O2
  Sulfur            1.39      6.03    4.64  S

**For a gas, SI = log10(fugacity). Fugacity = pressure * phi / 1 atm.
  For ideal gases, phi = 1.

Reaction step 62.

WARNING: Numerical method failed, switching to numerical derivatives.
Using solution 1.	
Using gas phase 1.	
Using reaction 1.	

Reaction 1.	

	  1.000e-01 moles of the following reaction have been added:

	                 Relative
	Reactant            moles

	H2S                  1.00000

	                 Relative
	Element             moles
	H                    2.00000
	S                    1.00000

-----------------------------------Gas phase-----------------------------------

Total pressure: 386.86      atmospheres          (Peng-Robinson calculation)
    Gas volume:   1.00e+00 liters
  Molar volume:   3.69e-02 liters/mole
   P * Vm / RT:  0.58378  (Compressibility Factor Z) 

                                                        Moles in gas
                                            ----------------------------------
Component         log P           P    phi     Initial       Final       Delta

H2O(g)             0.49   3.121e+00  0.013   2.182e-01   2.185e-01   3.118e-04
H2S(g)             2.58   3.837e+02  0.077   2.677e+01   2.687e+01   9.462e-02

-----------------------------Solution composition------------------------------

	Elements           Molality       Moles

	S                 1.840e+00   1.833e+00

----------------------------Description of solution----------------------------

                                       pH  =   3.331      Charge balance
                                       pe  =  -0.403      Adjusted to redox equilibrium
      Specific Conductance (µS/cm,  25°C)  = 179
                          Density (g/cm³)  =   1.01348
                               Volume (L)  =   1.04445
                        Viscosity (mPa s)  =   0.88719
                        Activity of water  =   0.972
                 Ionic strength (mol/kgw)  =   4.779e-04
                       Mass of water (kg)  =   9.961e-01
                 Total alkalinity (eq/kg)  =   8.233e-10
                         Temperature (°C)  =  25.00
                           Pressure (atm)  = 386.86
                  Electrical balance (eq)  =  -1.206e-09
 Percent error, 100*(Cat-|An|)/(Cat+|An|)  =  -0.00
                               Iterations  = 147
                                  Total H  = 1.142413e+02
                                  Total O  = 5.528768e+01

----------------------------Distribution of species----------------------------

                                               Log       Log       Log    mole V
   Species          Molality    Activity  Molality  Activity     Gamma   cm³/mol

   H+              4.779e-04   4.667e-04    -3.321    -3.331    -0.010      0.00
   OH-             2.989e-11   2.916e-11   -10.524   -10.535    -0.011     -2.83
   H2O             5.551e+01   9.717e-01     1.744    -0.012     0.000     17.77
H(0)          1.551e-09
   H2              7.753e-10   7.754e-10    -9.111    -9.110     0.000     15.22
O(0)          0.000e+00
   O2              0.000e+00   0.000e+00   -74.336   -74.336     0.000     29.89
S(-2)         1.840e+00
   H2S             1.483e+00   1.483e+00     0.171     0.171     0.000     36.54
   (H2S)2          1.783e-01   1.783e-01    -0.749    -0.749     0.000     45.79
   HS-             4.779e-04   4.663e-04    -3.321    -3.331    -0.011     20.76
   S-2             1.845e-13   1.674e-13   -12.734   -12.776    -0.042     (0)  
S(6)          1.938e-10
   SO4-2           1.882e-10   1.707e-10    -9.725    -9.768    -0.042     17.70
   HSO4-           5.626e-12   5.490e-12   -11.250   -11.260    -0.011     39.53

------------------------------Saturation indices-------------------------------

  Phase               SI** log IAP   log K(298 K, 387 atm)

  H2(g)            -5.91     -9.11   -3.20  H2
  H2O(g)           -1.39     -0.01    1.38  H2O	 Pressure   3.1 atm, phi 0.013
  H2S(g)            1.47     -6.66   -8.13  H2S	 Pressure 383.7 atm, phi 0.077
  O2(g)           -71.24    -74.34   -3.10  O2
  Sulfur            1.40      6.03    4.63  S

**For a gas, SI = log10(fugacity). Fugacity = pressure * phi / 1 atm.
  For ideal gases, phi = 1.

Reaction step 63.

WARNING: Numerical method failed, switching to numerical derivatives.
Using solution 1.	
Using gas phase 1.	
Using reaction 1.	

Reaction 1.	

	  1.000e-01 moles of the following reaction have been added:

	                 Relative
	Reactant            moles

	H2S                  1.00000

	                 Relative
	Element             moles
	H                    2.00000
	S                    1.00000

-----------------------------------Gas phase-----------------------------------

Total pressure: 406.06      atmospheres          (Peng-Robinson calculation)
    Gas volume:   1.00e+00 liters
  Molar volume:   3.68e-02 liters/mole
   P * Vm / RT:  0.61061  (Compressibility Factor Z) 

                                                        Moles in gas
                                            ----------------------------------
Component         log P           P    phi     Initial       Final       Delta

H2O(g)             0.51   3.269e+00  0.013   2.185e-01   2.188e-01   2.706e-04
H2S(g)             2.61   4.028e+02  0.076   2.687e+01   2.696e+01   9.489e-02

-----------------------------Solution composition------------------------------

	Elements           Molality       Moles

	S                 1.845e+00   1.838e+00

----------------------------Description of solution----------------------------

                                       pH  =   3.328      Charge balance
                                       pe  =  -0.403      Adjusted to redox equilibrium
      Specific Conductance (µS/cm,  25°C)  = 180
                          Density (g/cm³)  =   1.01420
                               Volume (L)  =   1.04388
                        Viscosity (mPa s)  =   0.88718
                        Activity of water  =   0.972
                 Ionic strength (mol/kgw)  =   4.809e-04
                       Mass of water (kg)  =   9.961e-01
                 Total alkalinity (eq/kg)  =   8.225e-10
                         Temperature (°C)  =  25.00
                           Pressure (atm)  = 406.06
                  Electrical balance (eq)  =  -1.206e-09
 Percent error, 100*(Cat-|An|)/(Cat+|An|)  =  -0.00
                               Iterations  = 151
                                  Total H  = 1.142510e+02
                                  Total O  = 5.528741e+01

----------------------------Distribution of species----------------------------

                                               Log       Log       Log    mole V
   Species          Molality    Activity  Molality  Activity     Gamma   cm³/mol

   H+              4.809e-04   4.696e-04    -3.318    -3.328    -0.010      0.00
   OH-             3.015e-11   2.942e-11   -10.521   -10.531    -0.011     -2.77
   H2O             5.551e+01   9.717e-01     1.744    -0.012     0.000     17.75
H(0)          1.553e-09
   H2              7.763e-10   7.764e-10    -9.110    -9.110     0.000     15.23
O(0)          0.000e+00
   O2              0.000e+00   0.000e+00   -74.346   -74.346     0.000     29.87
S(-2)         1.845e+00
   H2S             1.484e+00   1.485e+00     0.172     0.172     0.000     36.52
   (H2S)2          1.803e-01   1.803e-01    -0.744    -0.744     0.000     46.46
   HS-             4.809e-04   4.692e-04    -3.318    -3.329    -0.011     20.77
   S-2             1.876e-13   1.702e-13   -12.727   -12.769    -0.042     (0)  
S(6)          1.941e-10
   SO4-2           1.885e-10   1.709e-10    -9.725    -9.767    -0.042     17.84
   HSO4-           5.589e-12   5.454e-12   -11.253   -11.263    -0.011     39.50

------------------------------Saturation indices-------------------------------

  Phase               SI** log IAP   log K(298 K, 406 atm)

  H2(g)            -5.90     -9.11   -3.21  H2
  H2O(g)           -1.39     -0.01    1.38  H2O	 Pressure   3.3 atm, phi 0.013
  H2S(g)            1.48     -6.66   -8.14  H2S	 Pressure 402.8 atm, phi 0.076
  O2(g)           -71.24    -74.35   -3.11  O2
  Sulfur            1.40      6.02    4.62  S

**For a gas, SI = log10(fugacity). Fugacity = pressure * phi / 1 atm.
  For ideal gases, phi = 1.

Reaction step 64.

WARNING: Numerical method failed, switching to numerical derivatives.
Using solution 1.	
Using gas phase 1.	
Using reaction 1.	

Reaction 1.	

	  1.000e-01 moles of the following reaction have been added:

	                 Relative
	Reactant            moles

	H2S                  1.00000

	                 Relative
	Element             moles
	H                    2.00000
	S                    1.00000

-----------------------------------Gas phase-----------------------------------

Total pressure: 425.90      atmospheres          (Peng-Robinson calculation)
    Gas volume:   1.00e+00 liters
  Molar volume:   3.67e-02 liters/mole
   P * Vm / RT:  0.63821  (Compressibility Factor Z) 

                                                        Moles in gas
                                            ----------------------------------
Component         log P           P    phi     Initial       Final       Delta

H2O(g)             0.53   3.420e+00  0.012   2.188e-01   2.190e-01   2.281e-04
H2S(g)             2.63   4.225e+02  0.074   2.696e+01   2.706e+01   9.520e-02

-----------------------------Solution composition------------------------------

	Elements           Molality       Moles

	S                 1.850e+00   1.843e+00

----------------------------Description of solution----------------------------

                                       pH  =   3.325      Charge balance
                                       pe  =  -0.403      Adjusted to redox equilibrium
      Specific Conductance (µS/cm,  25°C)  = 182
                          Density (g/cm³)  =   1.01494
                               Volume (L)  =   1.04327
                        Viscosity (mPa s)  =   0.88718
                        Activity of water  =   0.972
                 Ionic strength (mol/kgw)  =   4.841e-04
                       Mass of water (kg)  =   9.961e-01
                 Total alkalinity (eq/kg)  =   8.221e-10
                         Temperature (°C)  =  25.00
                           Pressure (atm)  = 425.90
                  Electrical balance (eq)  =  -1.206e-09
 Percent error, 100*(Cat-|An|)/(Cat+|An|)  =  -0.00
                               Iterations  = 148
                                  Total H  = 1.142602e+02
                                  Total O  = 5.528718e+01

----------------------------Distribution of species----------------------------

                                               Log       Log       Log    mole V
   Species          Molality    Activity  Molality  Activity     Gamma   cm³/mol

   H+              4.841e-04   4.727e-04    -3.315    -3.325    -0.010      0.00
   OH-             3.042e-11   2.968e-11   -10.517   -10.528    -0.011     -2.71
   H2O             5.551e+01   9.716e-01     1.744    -0.012     0.000     17.74
H(0)          1.555e-09
   H2              7.773e-10   7.774e-10    -9.109    -9.109     0.000     15.24
O(0)          0.000e+00
   O2              0.000e+00   0.000e+00   -74.356   -74.356     0.000     29.84
S(-2)         1.850e+00
   H2S             1.485e+00   1.486e+00     0.172     0.172     0.000     36.49
   (H2S)2          1.821e-01   1.821e-01    -0.740    -0.740     0.000     47.15
   HS-             4.841e-04   4.723e-04    -3.315    -3.326    -0.011     20.78
   S-2             1.909e-13   1.731e-13   -12.719   -12.762    -0.042     (0)  
S(6)          1.943e-10
   SO4-2           1.887e-10   1.712e-10    -9.724    -9.767    -0.042     17.98
   HSO4-           5.552e-12   5.417e-12   -11.256   -11.266    -0.011     39.47

------------------------------Saturation indices-------------------------------

  Phase               SI** log IAP   log K(298 K, 426 atm)

  H2(g)            -5.90     -9.11   -3.21  H2
  H2O(g)           -1.38     -0.01    1.37  H2O	 Pressure   3.4 atm, phi 0.012
  H2S(g)            1.50     -6.65   -8.15  H2S	 Pressure 422.5 atm, phi 0.074
  O2(g)           -71.24    -74.36   -3.12  O2
  Sulfur            1.41      6.02    4.61  S

**For a gas, SI = log10(fugacity). Fugacity = pressure * phi / 1 atm.
  For ideal gases, phi = 1.

Reaction step 65.

WARNING: Numerical method failed, switching to numerical derivatives.
Using solution 1.	
Using gas phase 1.	
Using reaction 1.	

Reaction 1.	

	  1.000e-01 moles of the following reaction have been added:

	                 Relative
	Reactant            moles

	H2S                  1.00000

	                 Relative
	Element             moles
	H                    2.00000
	S                    1.00000

-----------------------------------Gas phase-----------------------------------

Total pressure: 446.42      atmospheres          (Peng-Robinson calculation)
    Gas volume:   1.00e+00 liters
  Molar volume:   3.65e-02 liters/mole
   P * Vm / RT:  0.66661  (Compressibility Factor Z) 

                                                        Moles in gas
                                            ----------------------------------
Component         log P           P    phi     Initial       Final       Delta

H2O(g)             0.55   3.575e+00  0.012   2.190e-01   2.192e-01   1.842e-04
H2S(g)             2.65   4.428e+02  0.073   2.706e+01   2.715e+01   9.554e-02

-----------------------------Solution composition------------------------------

	Elements           Molality       Moles

	S                 1.855e+00   1.847e+00

----------------------------Description of solution----------------------------

                                       pH  =   3.323      Charge balance
                                       pe  =  -0.403      Adjusted to redox equilibrium
      Specific Conductance (µS/cm,  25°C)  = 183
                          Density (g/cm³)  =   1.01569
                               Volume (L)  =   1.04265
                        Viscosity (mPa s)  =   0.88719
                        Activity of water  =   0.972
                 Ionic strength (mol/kgw)  =   4.873e-04
                       Mass of water (kg)  =   9.961e-01
                 Total alkalinity (eq/kg)  =   8.214e-10
                         Temperature (°C)  =  25.00
                           Pressure (atm)  = 446.42
                  Electrical balance (eq)  =  -1.206e-09
 Percent error, 100*(Cat-|An|)/(Cat+|An|)  =  -0.00
                               Iterations  = 158
                                  Total H  = 1.142687e+02
                                  Total O  = 5.528700e+01

----------------------------Distribution of species----------------------------

                                               Log       Log       Log    mole V
   Species          Molality    Activity  Molality  Activity     Gamma   cm³/mol

   H+              4.873e-04   4.758e-04    -3.312    -3.323    -0.010      0.00
   OH-             3.070e-11   2.995e-11   -10.513   -10.524    -0.011     -2.66
   H2O             5.551e+01   9.716e-01     1.744    -0.013     0.000     17.72
H(0)          1.557e-09
   H2              7.783e-10   7.783e-10    -9.109    -9.109     0.000     15.25
O(0)          0.000e+00
   O2              0.000e+00   0.000e+00   -74.367   -74.367     0.000     29.82
S(-2)         1.855e+00
   H2S             1.487e+00   1.487e+00     0.172     0.172     0.000     36.46
   (H2S)2          1.838e-01   1.838e-01    -0.736    -0.736     0.000     47.86
   HS-             4.873e-04   4.754e-04    -3.312    -3.323    -0.011     20.78
   S-2             1.943e-13   1.762e-13   -12.712   -12.754    -0.043     (0)  
S(6)          1.945e-10
   SO4-2           1.890e-10   1.714e-10    -9.723    -9.766    -0.043     18.13
   HSO4-           5.514e-12   5.379e-12   -11.259   -11.269    -0.011     39.43

------------------------------Saturation indices-------------------------------

  Phase               SI** log IAP   log K(298 K, 446 atm)

  H2(g)            -5.89     -9.11   -3.22  H2
  H2O(g)           -1.38     -0.01    1.36  H2O	 Pressure   3.6 atm, phi 0.012
  H2S(g)            1.51     -6.65   -8.16  H2S	 Pressure 442.8 atm, phi 0.073
  O2(g)           -71.24    -74.37   -3.13  O2
  Sulfur            1.42      6.01    4.59  S

**For a gas, SI = log10(fugacity). Fugacity = pressure * phi / 1 atm.
  For ideal gases, phi = 1.

------------------
End of simulation.
------------------

------------------------------------
Reading input data for simulation 5.
------------------------------------

