WARNING: Database file from DATABASE keyword is used; command line argument ignored.
   Input file: PercentSC
  Output file: PercentSC.out
Database file: ../database/phreeqc.dat

------------------
Reading data base.
------------------

	SOLUTION_MASTER_SPECIES
	SOLUTION_SPECIES
	PHASES
	GAS_BINARY_PARAMETERS
	EXCHANGE_MASTER_SPECIES
	EXCHANGE_SPECIES
	SURFACE_MASTER_SPECIES
	SURFACE_SPECIES
	MEAN_GAMMAS
	RATES
	END
------------------------------------
Reading input data for simulation 1.
------------------------------------

	DATABASE ../database/phreeqc.dat
	SELECTED_OUTPUT 101
	    file                 PercentSC_101.sel
	USER_PUNCH 101
	    headings Mu SC
	    start
	10 PUNCH STR_F$(MU, 20, 12)
	20 PUNCH STR_F$(SC, 20, 10)
	    end
	SOLUTION 1  SEAWATER FROM NORDSTROM AND OTHERS (1979)
	        units   ppm
	        pH      8.22
	        pe      8.451
	        density 1.023
	        temp    25.0
	        Ca              412.3
	        Mg              1291.8
	        Na              10768.0
	        K               399.1
	        Si              4.28
	        Cl              19353.0
	        Alkalinity      141.682 as HCO3
	        S(6)            2712.0
	USER_PRINT
	10 PRINT "Specific conductance: ", STR_F$(SC,15,1)
	20 PRINT
	30 t = SYS("AQ", count, name$, type$, moles)
	40 DIM spec_sc(count)
	100 FOR i = 1 TO count
	110   REM Get charge
	120   t$ = SPECIES_FORMULA$(name$(i), count_s, elt$, coef)
	130   FOR j = 1 TO count_s
	140     IF (elt$(j) = "charge") THEN l_z = ABS(coef(j))
	150   NEXT j
	155   mu_x = MU
	160   l_m = LM(name$(i))
	170   Dw = DIFF_C(name$(i))
	180   l_g = LG(Name$(i))
	190   IF ((l_z = 0) OR (Dw = 0) OR (l_m < -9)) THEN GOTO 300
	200   IF (mu_x < 0.36*l_z)         THEN ff = 0.6 / SQRT(l_z)         ELSE ff = SQRT(mu_x)/l_z 
	210   ff = ff * l_g
	220   IF (ff > 0) THEN ff = 0
	230   a = 10^(l_m + ff)
	240   spec_sc(i) = a * l_z * l_z * Dw
	250   tot_sc = tot_sc + spec_sc(i)
	300 NEXT i
	310 faraday = 96493.5
	320 r = 0.00831470
	330 sc_calc = tot_sc * 1e7 * faraday * faraday / (r * 298160)
	340 visc = 10^(-(1.37023 * (TC - 20) + 0.000836 * (TC - 20) * (TC - 20)) / (109 + TC))
	350 sc_calc = sc_calc * 0.88862 / visc
	400  PRINT "Species      Percentage of SC"
	405  t = 0
	410  FOR i = 1 TO count
	420    IF (spec_sc(i) = 0) THEN GOTO 440
	430    PRINT PAD(name$(i),10), STR_F$(100*spec_sc(i)/tot_sc, 15, 2)
	440  NEXT I
	END
-------------------------------------------
Beginning of initial solution calculations.
-------------------------------------------

Initial solution 1.	SEAWATER FROM NORDSTROM AND OTHERS (1979)

----------------------------------User print-----------------------------------

Specific conductance:          52918.6 

Species      Percentage of SC 
Cl-                  55.73 
Na+                  34.09 
Mg+2                  5.70 
SO4-2                 1.82 
K+                    0.97 
Ca+2                  1.23 
NaSO4-                0.26 
HCO3-                 0.10 
MgHCO3+               0.01 
KSO4-                 0.02 
Mg(SO4)2-2            0.05 
CO3-2                 0.01 
OH-                   0.00 
H+                    0.00 
HSO4-                 0.00 

-----------------------------Solution composition------------------------------

	Elements           Molality       Moles

	Alkalinity        2.406e-03   2.406e-03
	Ca                1.066e-02   1.066e-02
	Cl                5.657e-01   5.657e-01
	K                 1.058e-02   1.058e-02
	Mg                5.507e-02   5.507e-02
	Na                4.854e-01   4.854e-01
	S(6)              2.926e-02   2.926e-02
	Si                7.382e-05   7.382e-05

----------------------------Description of solution----------------------------

                                       pH  =   8.220    
                                       pe  =   8.451    
      Specific Conductance (µS/cm,  25°C)  = 52918
                          Density (g/cm³)  =   1.02326
                               Volume (L)  =   1.01279
                        Viscosity (mPa s)  =   0.95670
                        Activity of water  =   0.981
                 Ionic strength (mol/kgw)  =   6.737e-01
                       Mass of water (kg)  =   1.000e+00
                    Total carbon (mol/kg)  =   2.233e-03
                       Total CO2 (mol/kg)  =   2.233e-03
                         Temperature (°C)  =  25.00
                  Electrical balance (eq)  =   7.967e-04
 Percent error, 100*(Cat-|An|)/(Cat+|An|)  =   0.07
                               Iterations  =   8
                                  Total H  = 1.110148e+02
                                  Total O  = 5.563024e+01

----------------------------Distribution of species----------------------------

                                               Log       Log       Log    mole V
   Species          Molality    Activity  Molality  Activity     Gamma   cm³/mol

   OH-             2.705e-06   1.647e-06    -5.568    -5.783    -0.215     -2.63
   H+              7.983e-09   6.026e-09    -8.098    -8.220    -0.122      0.00
   H2O             5.551e+01   9.806e-01     1.744    -0.009     0.000     18.07
C(4)          2.233e-03
   HCO3-           1.613e-03   1.102e-03    -2.792    -2.958    -0.165     28.01
   MgHCO3+         2.865e-04   1.802e-04    -3.543    -3.744    -0.201      5.82
   NaHCO3          1.472e-04   1.861e-04    -3.832    -3.730     0.102     17.66
   MgCO3           9.795e-05   1.144e-04    -4.009    -3.942     0.067    -17.09
   CO3-2           4.124e-05   8.580e-06    -4.385    -5.067    -0.682     -0.67
   CaCO3           3.057e-05   3.569e-05    -4.515    -4.447     0.067    -14.60
   CO2             1.375e-05   1.523e-05    -4.862    -4.817     0.044     34.79
   KHCO3           2.716e-06   3.171e-06    -5.566    -5.499     0.067     21.42
   CaHCO3+         3.459e-10   2.394e-10    -9.461    -9.621    -0.160      9.96
   (CO2)2          3.404e-12   3.771e-12   -11.468   -11.424     0.044     68.75
Ca            1.066e-02
   Ca+2            9.903e-03   2.476e-03    -2.004    -2.606    -0.602    -16.70
   CaSO4           7.271e-04   7.790e-04    -3.138    -3.108     0.030      7.22
   CaCO3           3.057e-05   3.569e-05    -4.515    -4.447     0.067    -14.60
   CaOH+           8.956e-08   6.688e-08    -7.048    -7.175    -0.127     (0)  
   CaHCO3+         3.459e-10   2.394e-10    -9.461    -9.621    -0.160      9.96
   CaHSO4+         5.268e-11   3.934e-11   -10.278   -10.405    -0.127     (0)  
Cl            5.657e-01
   Cl-             5.657e-01   3.569e-01    -0.247    -0.448    -0.200     18.79
   HCl             3.828e-10   7.407e-10    -9.417    -9.130     0.287     20.36
H(0)          5.474e-37
   H2              2.737e-37   3.221e-37   -36.563   -36.492     0.071     14.99
K             1.058e-02
   K+              1.033e-02   6.440e-03    -1.986    -2.191    -0.205      9.66
   KSO4-           2.437e-04   2.210e-04    -3.613    -3.656    -0.042     35.14
   KHCO3           2.716e-06   3.171e-06    -5.566    -5.499     0.067     21.42
Mg            5.507e-02
   Mg+2            4.840e-02   1.397e-02    -1.315    -1.855    -0.540    -20.41
   MgSO4           6.049e-03   8.250e-03    -2.218    -2.084     0.135     -0.40
   MgHCO3+         2.865e-04   1.802e-04    -3.543    -3.744    -0.201      5.82
   Mg(SO4)2-2      2.166e-04   6.128e-05    -3.664    -4.213    -0.548     48.71
   MgCO3           9.795e-05   1.144e-04    -4.009    -3.942     0.067    -17.09
   MgOH+           1.172e-05   8.255e-06    -4.931    -5.083    -0.152     (0)  
Na            4.854e-01
   Na+             4.759e-01   3.415e-01    -0.323    -0.467    -0.144     -0.50
   NaSO4-          9.407e-03   6.766e-03    -2.027    -2.170    -0.143     21.71
   NaHCO3          1.472e-04   1.861e-04    -3.832    -3.730     0.102     17.66
   Na2SO4          9.820e-07   1.127e-06    -6.008    -5.948     0.060     47.96
O(0)          6.888e-20
   O2              3.444e-20   4.022e-20   -19.463   -19.396     0.067     30.40
S(6)          2.926e-02
   SO4-2           1.240e-02   2.255e-03    -1.907    -2.647    -0.740     17.12
   NaSO4-          9.407e-03   6.766e-03    -2.027    -2.170    -0.143     21.71
   MgSO4           6.049e-03   8.250e-03    -2.218    -2.084     0.135     -0.40
   CaSO4           7.271e-04   7.790e-04    -3.138    -3.108     0.030      7.22
   KSO4-           2.437e-04   2.210e-04    -3.613    -3.656    -0.042     35.14
   Mg(SO4)2-2      2.166e-04   6.128e-05    -3.664    -4.213    -0.548     48.71
   Na2SO4          9.820e-07   1.127e-06    -6.008    -5.948     0.060     47.96
   HSO4-           1.769e-09   1.321e-09    -8.752    -8.879    -0.127     40.96
   CaHSO4+         5.268e-11   3.934e-11   -10.278   -10.405    -0.127     (0)  
Si            7.382e-05
   H4SiO4          7.061e-05   8.246e-05    -4.151    -4.084     0.067     52.08
   H3SiO4-         3.209e-06   2.018e-06    -5.494    -5.695    -0.201     28.72
   H2SiO4-2        1.095e-10   2.278e-11    -9.961   -10.642    -0.682     (0)  

------------------------------Saturation indices-------------------------------

  Phase               SI** log IAP   log K(298 K,   1 atm)

  Anhydrite        -0.94     -5.25   -4.31  CaSO4
  Aragonite         0.66     -7.67   -8.34  CaCO3
  Arcanite         -5.15     -7.03   -1.88  K2SO4
  Calcite           0.78     -7.67   -8.45  CaCO3
  Chalcedony       -0.52     -4.07   -3.55  SiO2
  Chrysotile        3.38     35.58   32.20  Mg3Si2O5(OH)4
  CO2(g)           -3.35     -4.82   -1.47  CO2
  Dolomite          2.49    -14.59  -17.08  CaMg(CO3)2
  Epsomite         -2.82     -4.56   -1.74  MgSO4:7H2O
  Gypsum           -0.72     -5.27   -4.55  CaSO4:2H2O
  H2(g)           -33.39    -36.49   -3.10  H2
  H2O(g)           -1.51     -0.01    1.50  H2O
  Halite           -2.48     -0.91    1.57  NaCl
  Hexahydrite      -2.99     -4.55   -1.57  MgSO4:6H2O
  Kieserite        -3.35     -4.51   -1.16  MgSO4:H2O
  Mirabilite       -2.96     -3.67   -0.71  Na2SO4:10H2O
  O2(g)           -16.50    -19.40   -2.89  O2
  Quartz           -0.09     -4.07   -3.98  SiO2
  Sepiolite         1.16     16.92   15.76  Mg2Si3O7.5OH:3H2O
  Sepiolite(d)     -1.74     16.92   18.66  Mg2Si3O7.5OH:3H2O
  SiO2(a)          -1.35     -4.07   -2.71  SiO2
  Sylvite          -3.54     -2.64    0.90  KCl
  Talc              6.06     27.45   21.40  Mg3Si4O10(OH)2
  Thenardite       -4.23     -3.58    0.65  Na2SO4

**For a gas, SI = log10(fugacity). Fugacity = pressure * phi / 1 atm.
  For ideal gases, phi = 1.

------------------
End of simulation.
------------------

------------------------------------
Reading input data for simulation 2.
------------------------------------

	END
------------------
End of simulation.
------------------

------------------------------------
Reading input data for simulation 3.
------------------------------------

