WARNING: Database file from DATABASE keyword is used; command line argument ignored.
   Input file: phase_formula
  Output file: phase_formula.out
Database file: ../database/phreeqc.dat

------------------
Reading data base.
------------------

	SOLUTION_MASTER_SPECIES
	SOLUTION_SPECIES
	PHASES
	GAS_BINARY_PARAMETERS
	EXCHANGE_MASTER_SPECIES
	EXCHANGE_SPECIES
	SURFACE_MASTER_SPECIES
	SURFACE_SPECIES
	MEAN_GAMMAS
	RATES
	END
------------------------------------
Reading input data for simulation 1.
------------------------------------

	database ../database/phreeqc.dat
	SELECTED_OUTPUT 101
	    file                 phase_formula_101.sel
	USER_PUNCH 101
	    headings Mu SC
	    start
	10 PUNCH STR_F$(MU, 20, 12)
	20 PUNCH STR_F$(SC, 20, 10)
	    end
	SOLUTION 1
	    temp      25
	    pH        7
	    pe        4
	    redox     pe
	    units     mmol/kgw
	    density   1
	    water    1 # kg
	SOLID_SOLUTIONS 1
	    Calcite_s_s
	        component Calcite 0.01
	        component Smithsonite 0.001
	        component Strontianite 0.02
	    Barite
	        component Barite 0
	        component Anhydrite 0
	USER_PRINT
	5 min$ = "Calcite"
	10 form$ = PHASE_FORMULA(min$)
	20 print min$, form$
	30 form$ = PHASE_FORMULA(min$, count, elts$, coefs)
	40 for i = 1 to count
	50 print "   ", PAD(elts$[i], 20), coefs[i]
	60 next i
	105 min$ = "CalciteX"
	110 form$ = PHASE_FORMULA(min$)
	120 print min$, form$
	130 form$ = PHASE_FORMULA(min$, count, elts$, coefs)
	140 for i = 1 to count
	150 print "   ", PAD(elts$[i], 20), coefs[i]
	160 next i
	200 name$ = "Calcite_s_s"
	210 total = LIST_S_S(name$, count, comp$, moles)
	220 print PAD(name$, 20), total
	230 for i = 1 to count
	240 print "   ", PAD(comp$[i], 20), moles[i], moles[i]/total
	250 next i
	300 name$ = "Barite"
	310 total = LIST_S_S(name$, count, comp$, moles)
	320 print PAD(name$, 20), total
	330 for i = 1 to count
	340 print "   ", PAD(comp$[i], 20), moles[i], moles[i]/total
	350 next i
	END
-------------------------------------------
Beginning of initial solution calculations.
-------------------------------------------

Initial solution 1.	

----------------------------------User print-----------------------------------

Calcite CaCO3 
    C                               1 
    Ca                              1 
    O                               3 
CalciteX  
Calcite_s_s                     0 
Barite                          0 

-----------------------------Solution composition------------------------------

	Elements           Molality       Moles

	Pure water     

----------------------------Description of solution----------------------------

                                       pH  =   7.000    
                                       pe  =   4.000    
      Specific Conductance (µS/cm,  25°C)  = 0
                          Density (g/cm³)  =   0.99704
                               Volume (L)  =   1.00297
                        Viscosity (mPa s)  =   0.89002
                        Activity of water  =   1.000
                 Ionic strength (mol/kgw)  =   1.007e-07
                       Mass of water (kg)  =   1.000e+00
                 Total alkalinity (eq/kg)  =   1.217e-09
                         Temperature (°C)  =  25.00
                  Electrical balance (eq)  =  -1.217e-09
 Percent error, 100*(Cat-|An|)/(Cat+|An|)  =  -0.60
                               Iterations  =   0
                                  Total H  = 1.110124e+02
                                  Total O  = 5.550622e+01

----------------------------Distribution of species----------------------------

                                               Log       Log       Log    mole V
   Species          Molality    Activity  Molality  Activity     Gamma   cm³/mol

   OH-             1.013e-07   1.012e-07    -6.995    -6.995    -0.000     -4.14
   H+              1.001e-07   1.000e-07    -7.000    -7.000    -0.000      0.00
   H2O             5.551e+01   1.000e+00     1.744     0.000     0.000     18.07
H(0)          1.416e-25
   H2              7.079e-26   7.079e-26   -25.150   -25.150     0.000     14.99
O(0)          0.000e+00
   O2              0.000e+00   0.000e+00   -42.063   -42.063     0.000     30.40

------------------------------Saturation indices-------------------------------

  Phase               SI** log IAP   log K(298 K,   1 atm)

  H2(g)           -22.05    -25.15   -3.10  H2
  H2O(g)           -1.50      0.00    1.50  H2O
  O2(g)           -39.17    -42.06   -2.89  O2

**For a gas, SI = log10(fugacity). Fugacity = pressure * phi / 1 atm.
  For ideal gases, phi = 1.

-----------------------------------------
Beginning of batch-reaction calculations.
-----------------------------------------

Reaction step 1.

WARNING: Element Ba is contained in solid solution Barite (which has 0.0 mass),
but is not in solution or other phases.
WARNING: Element S is contained in solid solution Barite (which has 0.0 mass),
but is not in solution or other phases.
Using solution 1.	
Using solid solution assemblage 1.	

----------------------------------User print-----------------------------------

Calcite CaCO3 
    C                               1 
    Ca                              1 
    O                               3 
CalciteX  
Calcite_s_s            3.0874e-02 
    Strontianite           1.9979e-02   6.4711e-01 
    Calcite                9.9288e-03   3.2159e-01 
    Smithsonite            9.6653e-04   3.1306e-02 
Barite                 2.0000e-27 
    Anhydrite              1.0000e-27   5.0000e-01 
    Barite                 1.0000e-27   5.0000e-01 

--------------------------------Solid solutions--------------------------------


Solid solution                Component        Moles  Delta moles   Mole fract

Barite                                      0.00e+00
                                 Barite     0.00e+00     0.00e+00     0.00e+00
                              Anhydrite     0.00e+00     0.00e+00     0.00e+00
Calcite_s_s                                 3.09e-02
                                Calcite     9.93e-03    -7.12e-05     3.22e-01
                            Smithsonite     9.67e-04    -3.35e-05     3.13e-02
                           Strontianite     2.00e-02    -2.12e-05     6.47e-01

-----------------------------Solution composition------------------------------

	Elements           Molality       Moles

	C                 1.259e-04   1.259e-04
	Ca                7.125e-05   7.125e-05
	Sr                2.123e-05   2.123e-05
	Zn                3.347e-05   3.347e-05

----------------------------Description of solution----------------------------

                                       pH  =   9.576      Charge balance
                                       pe  =  -3.851      Adjusted to redox equilibrium
      Specific Conductance (µS/cm,  25°C)  = 24
                          Density (g/cm³)  =   0.99706
                               Volume (L)  =   1.00296
                        Viscosity (mPa s)  =   0.89030
                        Activity of water  =   1.000
                 Ionic strength (mol/kgw)  =   2.917e-04
                       Mass of water (kg)  =   1.000e+00
                 Total alkalinity (eq/kg)  =   2.519e-04
                       Total CO2 (mol/kg)  =   1.259e-04
                         Temperature (°C)  =  25.00
                  Electrical balance (eq)  =  -1.217e-09
 Percent error, 100*(Cat-|An|)/(Cat+|An|)  =  -0.00
                               Iterations  =  17
                                  Total H  = 1.110124e+02
                                  Total O  = 5.550659e+01

----------------------------Distribution of species----------------------------

                                               Log       Log       Log    mole V
   Species          Molality    Activity  Molality  Activity     Gamma   cm³/mol

   OH-             3.890e-05   3.814e-05    -4.410    -4.419    -0.009     -4.12
   H+              2.705e-10   2.654e-10    -9.568    -9.576    -0.008      0.00
   H2O             5.551e+01   1.000e+00     1.744    -0.000     0.000     18.07
C(-4)         2.347e-29
   CH4             2.347e-29   2.347e-29   -28.630   -28.630     0.000     35.46
C(4)          1.259e-04
   HCO3-           1.032e-04   1.012e-04    -3.986    -3.995    -0.008     24.53
   CO3-2           1.934e-05   1.789e-05    -4.714    -4.747    -0.034     -4.74
   CaCO3           1.926e-06   1.926e-06    -5.715    -5.715     0.000    -14.60
   ZnCO3           6.246e-07   6.246e-07    -6.204    -6.204     0.000     (0)  
   Zn(CO3)2-2      2.584e-07   2.389e-07    -6.588    -6.622    -0.034     (0)  
   SrCO3           2.216e-07   2.216e-07    -6.655    -6.654     0.000    -14.13
   CO2             6.040e-08   6.040e-08    -7.219    -7.219     0.000     34.79
   SrHCO3+         3.063e-08   3.004e-08    -7.514    -7.522    -0.008     (0)  
   ZnHCO3+         2.274e-09   2.230e-09    -8.643    -8.652    -0.009     (0)  
   CaHCO3+         5.799e-13   5.688e-13   -12.237   -12.245    -0.008      9.66
   (CO2)2          5.931e-17   5.931e-17   -16.227   -16.227     0.000     68.75
Ca            7.125e-05
   Ca+2            6.928e-05   6.408e-05    -4.159    -4.193    -0.034    -18.19
   CaCO3           1.926e-06   1.926e-06    -5.715    -5.715     0.000    -14.60
   CaOH+           4.087e-08   4.008e-08    -7.389    -7.397    -0.009     (0)  
   CaHCO3+         5.799e-13   5.688e-13   -12.237   -12.245    -0.008      9.66
H(0)          5.021e-15
   H2              2.510e-15   2.511e-15   -14.600   -14.600     0.000     14.99
O(0)          0.000e+00
   O2              0.000e+00   0.000e+00   -63.162   -63.162     0.000     30.40
Sr            2.123e-05
   Sr+2            2.097e-05   1.940e-05    -4.678    -4.712    -0.034    -18.04
   SrCO3           2.216e-07   2.216e-07    -6.655    -6.654     0.000    -14.13
   SrHCO3+         3.063e-08   3.004e-08    -7.514    -7.522    -0.008     (0)  
   SrOH+           3.823e-09   3.749e-09    -8.418    -8.426    -0.008     (0)  
Zn            3.347e-05
   Zn(OH)2         3.128e-05   3.128e-05    -4.505    -4.505     0.000     (0)  
   ZnOH+           7.373e-07   7.230e-07    -6.132    -6.141    -0.009     (0)  
   ZnCO3           6.246e-07   6.246e-07    -6.204    -6.204     0.000     (0)  
   Zn(OH)3-        3.801e-07   3.727e-07    -6.420    -6.429    -0.009     (0)  
   Zn(CO3)2-2      2.584e-07   2.389e-07    -6.588    -6.622    -0.034     (0)  
   Zn+2            1.892e-07   1.750e-07    -6.723    -6.757    -0.034    -25.41
   ZnHCO3+         2.274e-09   2.230e-09    -8.643    -8.652    -0.009     (0)  
   Zn(OH)4-2       2.408e-10   2.226e-10    -9.618    -9.652    -0.034     (0)  

------------------------------Saturation indices-------------------------------

  Phase               SI** log IAP   log K(298 K,   1 atm)

  Aragonite        -0.60     -8.94   -8.34  CaCO3
  Calcite          -0.49     -8.94   -8.45  CaCO3
  CH4(g)          -25.83    -28.63   -2.80  CH4
  CO2(g)           -5.75     -7.22   -1.47  CO2
  H2(g)           -11.50    -14.60   -3.10  H2
  H2O(g)           -1.50     -0.00    1.50  H2O
  O2(g)           -60.27    -63.16   -2.89  O2
  Smithsonite      -1.50    -11.50  -10.00  ZnCO3
  Strontianite     -0.19     -9.46   -9.27  SrCO3
  Zn(OH)2(e)        0.90     12.40   11.50  Zn(OH)2

**For a gas, SI = log10(fugacity). Fugacity = pressure * phi / 1 atm.
  For ideal gases, phi = 1.

------------------
End of simulation.
------------------

------------------------------------
Reading input data for simulation 2.
------------------------------------

