WARNING: Database file from DATABASE keyword is used; command line argument ignored.
   Input file: phi_Duan_PR
  Output file: phi_Duan_PR.out
Database file: ../database/phreeqc.dat

------------------
Reading data base.
------------------

	SOLUTION_MASTER_SPECIES
	SOLUTION_SPECIES
	PHASES
	GAS_BINARY_PARAMETERS
	EXCHANGE_MASTER_SPECIES
	EXCHANGE_SPECIES
	SURFACE_MASTER_SPECIES
	SURFACE_SPECIES
	MEAN_GAMMAS
	RATES
	END
------------------------------------
Reading input data for simulation 1.
------------------------------------

	DATABASE ../database/phreeqc.dat
	SELECTED_OUTPUT 101
	    file                 phi_Duan_PR_101.sel
	USER_PUNCH 101
	    headings Mu SC
	    start
	10 PUNCH STR_F$(MU, 20, 12)
	20 PUNCH STR_F$(SC, 20, 10)
	    end
	SOLUTION 1
	SELECTED_OUTPUT
	 reset false
	 file phi_Duan_PR.sel
	USER_PUNCH
	  1 sc$ = chr$(59)
	 10 for i = 1.1 to 500 step 20
	 20   punch 'SOLUTION 1' + sc$ + ' -temp 25' + EOL$ + 'C 1 CO2(g) ' +             str$(log10(i)) + EOL$ + '  pH 2 charge' +  EOL$ + 'END' + EOL$
	 30 next i
	END
-------------------------------------------
Beginning of initial solution calculations.
-------------------------------------------

Initial solution 1.	

WARNING: USER_PUNCH: Headings count does not match number of calls to PUNCH.

-----------------------------Solution composition------------------------------

	Elements           Molality       Moles

	Pure water     

----------------------------Description of solution----------------------------

                                       pH  =   7.000    
                                       pe  =   4.000    
      Specific Conductance (µS/cm,  25°C)  = 0
                          Density (g/cm³)  =   0.99704
                               Volume (L)  =   1.00297
                        Viscosity (mPa s)  =   0.89002
                        Activity of water  =   1.000
                 Ionic strength (mol/kgw)  =   1.007e-07
                       Mass of water (kg)  =   1.000e+00
                 Total alkalinity (eq/kg)  =   1.217e-09
                         Temperature (°C)  =  25.00
                  Electrical balance (eq)  =  -1.217e-09
 Percent error, 100*(Cat-|An|)/(Cat+|An|)  =  -0.60
                               Iterations  =   0
                                  Total H  = 1.110124e+02
                                  Total O  = 5.550622e+01

----------------------------Distribution of species----------------------------

                                               Log       Log       Log    mole V
   Species          Molality    Activity  Molality  Activity     Gamma   cm³/mol

   OH-             1.013e-07   1.012e-07    -6.995    -6.995    -0.000     -4.14
   H+              1.001e-07   1.000e-07    -7.000    -7.000    -0.000      0.00
   H2O             5.551e+01   1.000e+00     1.744     0.000     0.000     18.07
H(0)          1.416e-25
   H2              7.079e-26   7.079e-26   -25.150   -25.150     0.000     14.99
O(0)          0.000e+00
   O2              0.000e+00   0.000e+00   -42.063   -42.063     0.000     30.40

------------------------------Saturation indices-------------------------------

  Phase               SI** log IAP   log K(298 K,   1 atm)

  H2(g)           -22.05    -25.15   -3.10  H2
  H2O(g)           -1.50      0.00    1.50  H2O
  O2(g)           -39.17    -42.06   -2.89  O2

**For a gas, SI = log10(fugacity). Fugacity = pressure * phi / 1 atm.
  For ideal gases, phi = 1.

------------------
End of simulation.
------------------

------------------------------------
Reading input data for simulation 2.
------------------------------------

	SELECTED_OUTPUT
	 selected_out false
	USER_GRAPH
	 -plot_csv_file f_CO2.dat
	 -initial_solutions true
	 -axis_titles "Pressure / atm" "CO2 fugacity coefficient"
	 -axis_scale x_axis 0 500
	 -axis_scale y_axis 0 1.2
	 10 graph_x PR_P("CO2(g)")
	 20 graph_y PR_PHI("CO2(g)")
	 -end

	Reading data from phi_Duan_PR.sel ...
	SOLUTION 1
	 temp 25
	C 1 CO2(g)   4.1393e-02
	  pH 2 charge
	END
-------------------------------------------
Beginning of initial solution calculations.
-------------------------------------------

Initial solution 1.	

-----------------------------Solution composition------------------------------

	Elements           Molality       Moles

	C                 3.738e-02   3.738e-02  Equilibrium with CO2(g)

----------------------------Description of solution----------------------------

                                       pH  =   3.891      Charge balance
                                       pe  =   4.000    
      Specific Conductance (µS/cm,  25°C)  = 50
                          Density (g/cm³)  =   0.99739
                               Volume (L)  =   1.00426
                        Viscosity (mPa s)  =   0.89263
                        Activity of water  =   0.999
                 Ionic strength (mol/kgw)  =   1.303e-04
                       Mass of water (kg)  =   1.000e+00
                 Total alkalinity (eq/kg)  =  -3.485e-16
                       Total CO2 (mol/kg)  =   3.738e-02
                         Temperature (°C)  =  25.00
                  Electrical balance (eq)  =   3.485e-16
 Percent error, 100*(Cat-|An|)/(Cat+|An|)  =   0.00
                               Iterations  =   8
                                  Total H  = 1.110127e+02
                                  Total O  = 5.558110e+01

----------------------------Distribution of species----------------------------

                                               Log       Log       Log    mole V
   Species          Molality    Activity  Molality  Activity     Gamma   cm³/mol

   H+              1.303e-04   1.286e-04    -3.885    -3.891    -0.006      0.00
   OH-             7.970e-11   7.865e-11   -10.099   -10.104    -0.006     -4.13
   H2O             5.551e+01   9.994e-01     1.744    -0.000     0.000     18.07
C(-4)         0.000e+00
   CH4             0.000e+00   0.000e+00   -40.165   -40.165     0.000     35.46
C(4)          3.738e-02
   CO2             3.720e-02   3.720e-02    -1.429    -1.429     0.000     34.79
   HCO3-           1.303e-04   1.286e-04    -3.885    -3.891    -0.006     24.53
   (CO2)2          2.250e-05   2.250e-05    -4.648    -4.648     0.000     68.75
   CO3-2           4.942e-11   4.689e-11   -10.306   -10.329    -0.023     -4.76
H(0)          2.342e-19
   H2              1.171e-19   1.171e-19   -18.932   -18.931     0.000     14.99
O(0)          0.000e+00
   O2              0.000e+00   0.000e+00   -54.500   -54.500     0.000     30.40

------------------------------Saturation indices-------------------------------

  Phase               SI** log IAP   log K(298 K,   1 atm)

  CH4(g)          -37.36    -40.16   -2.80  CH4
  CO2(g)            0.04     -1.43   -1.47  CO2	 Pressure   1.1 atm, phi 0.994
  H2(g)           -15.83    -18.93   -3.10  H2
  H2O(g)           -1.50     -0.00    1.50  H2O
  O2(g)           -51.61    -54.50   -2.89  O2

**For a gas, SI = log10(fugacity). Fugacity = pressure * phi / 1 atm.
  For ideal gases, phi = 1.

------------------
End of simulation.
------------------

------------------------------------
Reading input data for simulation 3.
------------------------------------

		SOLUTION 1
	 temp 25
	C 1 CO2(g)   1.3243e+00
	  pH 2 charge
	END
-------------------------------------------
Beginning of initial solution calculations.
-------------------------------------------

Initial solution 1.	

-----------------------------Solution composition------------------------------

	Elements           Molality       Moles

	C                 6.501e-01   6.501e-01  Equilibrium with CO2(g)

----------------------------Description of solution----------------------------

                                       pH  =   3.276      Charge balance
                                       pe  =   4.000    
      Specific Conductance (µS/cm,  25°C)  = 199
                          Density (g/cm³)  =   1.00297
                               Volume (L)  =   1.02557
                        Viscosity (mPa s)  =   0.93468
                        Activity of water  =   0.989
                 Ionic strength (mol/kgw)  =   5.430e-04
                       Mass of water (kg)  =   1.000e+00
                 Total alkalinity (eq/kg)  =  -9.991e-15
                       Total CO2 (mol/kg)  =   6.501e-01
                         Temperature (°C)  =  25.00
                  Electrical balance (eq)  =   9.991e-15
 Percent error, 100*(Cat-|An|)/(Cat+|An|)  =   0.00
                               Iterations  =   7
                                  Total H  = 1.110135e+02
                                  Total O  = 5.680696e+01

----------------------------Distribution of species----------------------------

                                               Log       Log       Log    mole V
   Species          Molality    Activity  Molality  Activity     Gamma   cm³/mol

   H+              5.430e-04   5.293e-04    -3.265    -3.276    -0.011      0.00
   OH-             1.942e-11   1.891e-11   -10.712   -10.723    -0.012     -4.12
   H2O             5.551e+01   9.891e-01     1.744    -0.005     0.000     18.07
C(-4)         9.844e-35
   CH4             9.844e-35   9.845e-35   -34.007   -34.007     0.000     35.46
C(4)          6.501e-01
   CO2             6.364e-01   6.364e-01    -0.196    -0.196     0.000     34.79
   (CO2)2          6.585e-03   6.585e-03    -2.181    -2.181     0.000     68.75
   HCO3-           5.430e-04   5.289e-04    -3.265    -3.277    -0.011     24.54
   CO3-2           5.206e-11   4.687e-11   -10.283   -10.329    -0.046     -4.71
H(0)          3.966e-18
   H2              1.983e-18   1.983e-18   -17.703   -17.703     0.000     14.99
O(0)          0.000e+00
   O2              0.000e+00   0.000e+00   -56.967   -56.967     0.000     30.40

------------------------------Saturation indices-------------------------------

  Phase               SI** log IAP   log K(298 K,   1 atm)

  CH4(g)          -31.20    -34.01   -2.80  CH4
  CO2(g)            1.27     -0.20   -1.47  CO2	 Pressure  21.1 atm, phi 0.886
  H2(g)           -14.60    -17.70   -3.10  H2
  H2O(g)           -1.51     -0.00    1.50  H2O
  O2(g)           -54.07    -56.97   -2.89  O2

**For a gas, SI = log10(fugacity). Fugacity = pressure * phi / 1 atm.
  For ideal gases, phi = 1.

------------------
End of simulation.
------------------

------------------------------------
Reading input data for simulation 4.
------------------------------------

		SOLUTION 1
	 temp 25
	C 1 CO2(g)   1.6138e+00
	  pH 2 charge
	END
-------------------------------------------
Beginning of initial solution calculations.
-------------------------------------------

Initial solution 1.	

-----------------------------Solution composition------------------------------

	Elements           Molality       Moles

	C                 1.135e+00   1.135e+00  Equilibrium with CO2(g)

----------------------------Description of solution----------------------------

                                       pH  =   3.160      Charge balance
                                       pe  =   4.000    
      Specific Conductance (µS/cm,  25°C)  = 251
                          Density (g/cm³)  =   1.00723
                               Volume (L)  =   1.04243
                        Viscosity (mPa s)  =   0.96782
                        Activity of water  =   0.981
                 Ionic strength (mol/kgw)  =   7.120e-04
                       Mass of water (kg)  =   1.000e+00
                 Total alkalinity (eq/kg)  =  -1.674e-15
                       Total CO2 (mol/kg)  =   1.135e+00
                         Temperature (°C)  =  25.00
                  Electrical balance (eq)  =   1.674e-15
 Percent error, 100*(Cat-|An|)/(Cat+|An|)  =   0.00
                               Iterations  =   7
                                  Total H  = 1.110139e+02
                                  Total O  = 5.777691e+01

----------------------------Distribution of species----------------------------

                                               Log       Log       Log    mole V
   Species          Molality    Activity  Molality  Activity     Gamma   cm³/mol

   H+              7.120e-04   6.916e-04    -3.148    -3.160    -0.013      0.00
   OH-             1.480e-11   1.436e-11   -10.830   -10.843    -0.013     -4.11
   H2O             5.551e+01   9.810e-01     1.744    -0.008     0.000     18.07
C(-4)         1.464e-33
   CH4             1.464e-33   1.464e-33   -32.835   -32.834     0.000     35.46
C(4)          1.135e+00
   CO2             1.095e+00   1.095e+00     0.040     0.040     0.000     34.79
   (CO2)2          1.950e-02   1.951e-02    -1.710    -1.710     0.000     68.75
   HCO3-           7.120e-04   6.910e-04    -3.148    -3.160    -0.013     24.55
   CO3-2           5.281e-11   4.686e-11   -10.277   -10.329    -0.052     -4.70
H(0)          6.772e-18
   H2              3.386e-18   3.387e-18   -17.470   -17.470     0.000     14.99
O(0)          0.000e+00
   O2              0.000e+00   0.000e+00   -57.439   -57.439     0.000     30.40

------------------------------Saturation indices-------------------------------

  Phase               SI** log IAP   log K(298 K,   1 atm)

  CH4(g)          -30.03    -32.83   -2.80  CH4
  CO2(g)            1.51      0.04   -1.47  CO2	 Pressure  41.1 atm, phi 0.783
  H2(g)           -14.37    -17.47   -3.10  H2
  H2O(g)           -1.51     -0.01    1.50  H2O
  O2(g)           -54.55    -57.44   -2.89  O2

**For a gas, SI = log10(fugacity). Fugacity = pressure * phi / 1 atm.
  For ideal gases, phi = 1.

------------------
End of simulation.
------------------

------------------------------------
Reading input data for simulation 5.
------------------------------------

		SOLUTION 1
	 temp 25
	C 1 CO2(g)   1.7860e+00
	  pH 2 charge
	END
-------------------------------------------
Beginning of initial solution calculations.
-------------------------------------------

Initial solution 1.	

-----------------------------Solution composition------------------------------

	Elements           Molality       Moles

	C                 1.480e+00   1.480e+00  Equilibrium with CO2(g)

----------------------------Description of solution----------------------------

                                       pH  =   3.106      Charge balance
                                       pe  =   4.000    
      Specific Conductance (µS/cm,  25°C)  = 276
                          Density (g/cm³)  =   1.01017
                               Volume (L)  =   1.05442
                        Viscosity (mPa s)  =   0.99133
                        Activity of water  =   0.975
                 Ionic strength (mol/kgw)  =   8.082e-04
                       Mass of water (kg)  =   1.000e+00
                 Total alkalinity (eq/kg)  =   2.649e-16
                       Total CO2 (mol/kg)  =   1.480e+00
                         Temperature (°C)  =  25.00
                  Electrical balance (eq)  =  -2.649e-16
 Percent error, 100*(Cat-|An|)/(Cat+|An|)  =  -0.00
                               Iterations  =   7
                                  Total H  = 1.110140e+02
                                  Total O  = 5.846685e+01

----------------------------Distribution of species----------------------------

                                               Log       Log       Log    mole V
   Species          Molality    Activity  Molality  Activity     Gamma   cm³/mol

   H+              8.082e-04   7.837e-04    -3.092    -3.106    -0.013      0.00
   OH-             1.301e-11   1.260e-11   -10.886   -10.900    -0.014     -4.11
   H2O             5.551e+01   9.754e-01     1.744    -0.011     0.000     18.07
C(-4)         5.193e-33
   CH4             5.193e-33   5.194e-33   -32.285   -32.285     0.000     35.46
C(4)          1.480e+00
   CO2             1.414e+00   1.414e+00     0.150     0.151     0.000     34.79
   (CO2)2          3.251e-02   3.252e-02    -1.488    -1.488     0.000     68.75
   HCO3-           8.082e-04   7.829e-04    -3.092    -3.106    -0.014     24.55
   CO3-2           5.320e-11   4.685e-11   -10.274   -10.329    -0.055     -4.69
H(0)          8.694e-18
   H2              4.347e-18   4.348e-18   -17.362   -17.362     0.000     14.99
O(0)          0.000e+00
   O2              0.000e+00   0.000e+00   -57.661   -57.661     0.000     30.40

------------------------------Saturation indices-------------------------------

  Phase               SI** log IAP   log K(298 K,   1 atm)

  CH4(g)          -29.48    -32.28   -2.80  CH4
  CO2(g)            1.62      0.15   -1.47  CO2	 Pressure  61.1 atm, phi 0.680
  H2(g)           -14.26    -17.36   -3.10  H2
  H2O(g)           -1.51     -0.01    1.50  H2O
  O2(g)           -54.77    -57.66   -2.89  O2

**For a gas, SI = log10(fugacity). Fugacity = pressure * phi / 1 atm.
  For ideal gases, phi = 1.

------------------
End of simulation.
------------------

------------------------------------
Reading input data for simulation 6.
------------------------------------

		SOLUTION 1
	 temp 25
	C 1 CO2(g)   1.9090e+00
	  pH 2 charge
	END
-------------------------------------------
Beginning of initial solution calculations.
-------------------------------------------

Initial solution 1.	

-----------------------------Solution composition------------------------------

	Elements           Molality       Moles

	C                 1.585e+00   1.585e+00  Equilibrium with CO2(g)

----------------------------Description of solution----------------------------

                                       pH  =   3.092      Charge balance
                                       pe  =   4.000    
      Specific Conductance (µS/cm,  25°C)  = 283
                          Density (g/cm³)  =   1.01106
                               Volume (L)  =   1.05807
                        Viscosity (mPa s)  =   0.99848
                        Activity of water  =   0.974
                 Ionic strength (mol/kgw)  =   8.348e-04
                       Mass of water (kg)  =   1.000e+00
                 Total alkalinity (eq/kg)  =   7.094e-16
                       Total CO2 (mol/kg)  =   1.585e+00
                         Temperature (°C)  =  25.00
                  Electrical balance (eq)  =  -7.094e-16
 Percent error, 100*(Cat-|An|)/(Cat+|An|)  =  -0.00
                               Iterations  =   7
                                  Total H  = 1.110141e+02
                                  Total O  = 5.867685e+01

----------------------------Distribution of species----------------------------

                                               Log       Log       Log    mole V
   Species          Molality    Activity  Molality  Activity     Gamma   cm³/mol

   H+              8.348e-04   8.091e-04    -3.078    -3.092    -0.014      0.00
   OH-             1.259e-11   1.218e-11   -10.900   -10.914    -0.014     -4.11
   H2O             5.551e+01   9.737e-01     1.744    -0.012     0.000     18.07
C(-4)         7.184e-33
   CH4             7.184e-33   7.185e-33   -32.144   -32.144     0.000     35.46
C(4)          1.585e+00
   CO2             1.510e+00   1.510e+00     0.179     0.179     0.000     34.79
   (CO2)2          3.707e-02   3.707e-02    -1.431    -1.431     0.000     68.75
   HCO3-           8.348e-04   8.083e-04    -3.078    -3.092    -0.014     24.55
   CO3-2           5.331e-11   4.685e-11   -10.273   -10.329    -0.056     -4.69
H(0)          9.267e-18
   H2              4.633e-18   4.634e-18   -17.334   -17.334     0.000     14.99
O(0)          0.000e+00
   O2              0.000e+00   0.000e+00   -57.718   -57.718     0.000     30.40

------------------------------Saturation indices-------------------------------

  Phase               SI** log IAP   log K(298 K,   1 atm)

  CH4(g)          -29.34    -32.14   -2.80  CH4
  CO2(g)            1.65      0.18   -1.47  CO2	 Pressure  81.1 atm, phi 0.547
  H2(g)           -14.23    -17.33   -3.10  H2
  H2O(g)           -1.51     -0.01    1.50  H2O
  O2(g)           -54.83    -57.72   -2.89  O2

**For a gas, SI = log10(fugacity). Fugacity = pressure * phi / 1 atm.
  For ideal gases, phi = 1.

------------------
End of simulation.
------------------

------------------------------------
Reading input data for simulation 7.
------------------------------------

		SOLUTION 1
	 temp 25
	C 1 CO2(g)   2.0048e+00
	  pH 2 charge
	END
-------------------------------------------
Beginning of initial solution calculations.
-------------------------------------------

Initial solution 1.	

-----------------------------Solution composition------------------------------

	Elements           Molality       Moles

	C                 1.666e+00   1.666e+00  Equilibrium with CO2(g)

----------------------------Description of solution----------------------------

                                       pH  =   3.082      Charge balance
                                       pe  =   4.000    
      Specific Conductance (µS/cm,  25°C)  = 288
                          Density (g/cm³)  =   1.01173
                               Volume (L)  =   1.06087
                        Viscosity (mPa s)  =   1.00397
                        Activity of water  =   0.972
                 Ionic strength (mol/kgw)  =   8.545e-04
                       Mass of water (kg)  =   1.000e+00
                 Total alkalinity (eq/kg)  =   1.055e-15
                       Total CO2 (mol/kg)  =   1.666e+00
                         Temperature (°C)  =  25.00
                  Electrical balance (eq)  =  -1.055e-15
 Percent error, 100*(Cat-|An|)/(Cat+|An|)  =  -0.00
                               Iterations  =   7
                                  Total H  = 1.110141e+02
                                  Total O  = 5.883817e+01

----------------------------Distribution of species----------------------------

                                               Log       Log       Log    mole V
   Species          Molality    Activity  Molality  Activity     Gamma   cm³/mol

   H+              8.545e-04   8.279e-04    -3.068    -3.082    -0.014      0.00
   OH-             1.229e-11   1.189e-11   -10.910   -10.925    -0.014     -4.11
   H2O             5.551e+01   9.724e-01     1.744    -0.012     0.000     18.07
C(-4)         9.081e-33
   CH4             9.081e-33   9.082e-33   -32.042   -32.042     0.000     35.46
C(4)          1.666e+00
   CO2             1.583e+00   1.583e+00     0.200     0.200     0.000     34.79
   (CO2)2          4.075e-02   4.076e-02    -1.390    -1.390     0.000     68.75
   HCO3-           8.545e-04   8.271e-04    -3.068    -3.082    -0.014     24.55
   CO3-2           5.338e-11   4.685e-11   -10.273   -10.329    -0.057     -4.68
H(0)          9.704e-18
   H2              4.852e-18   4.853e-18   -17.314   -17.314     0.000     14.99
O(0)          0.000e+00
   O2              0.000e+00   0.000e+00   -57.759   -57.759     0.000     30.40

------------------------------Saturation indices-------------------------------

  Phase               SI** log IAP   log K(298 K,   1 atm)

  CH4(g)          -29.24    -32.04   -2.80  CH4
  CO2(g)            1.67      0.20   -1.47  CO2	 Pressure 101.1 atm, phi 0.460
  H2(g)           -14.21    -17.31   -3.10  H2
  H2O(g)           -1.51     -0.01    1.50  H2O
  O2(g)           -54.87    -57.76   -2.89  O2

**For a gas, SI = log10(fugacity). Fugacity = pressure * phi / 1 atm.
  For ideal gases, phi = 1.

------------------
End of simulation.
------------------

------------------------------------
Reading input data for simulation 8.
------------------------------------

		SOLUTION 1
	 temp 25
	C 1 CO2(g)   2.0831e+00
	  pH 2 charge
	END
-------------------------------------------
Beginning of initial solution calculations.
-------------------------------------------

Initial solution 1.	

-----------------------------Solution composition------------------------------

	Elements           Molality       Moles

	C                 1.745e+00   1.745e+00  Equilibrium with CO2(g)

----------------------------Description of solution----------------------------

                                       pH  =   3.073      Charge balance
                                       pe  =   4.000    
      Specific Conductance (µS/cm,  25°C)  = 292
                          Density (g/cm³)  =   1.01239
                               Volume (L)  =   1.06364
                        Viscosity (mPa s)  =   1.00938
                        Activity of water  =   0.971
                 Ionic strength (mol/kgw)  =   8.735e-04
                       Mass of water (kg)  =   1.000e+00
                 Total alkalinity (eq/kg)  =   1.402e-15
                       Total CO2 (mol/kg)  =   1.745e+00
                         Temperature (°C)  =  25.00
                  Electrical balance (eq)  =  -1.402e-15
 Percent error, 100*(Cat-|An|)/(Cat+|An|)  =  -0.00
                               Iterations  =   7
                                  Total H  = 1.110142e+02
                                  Total O  = 5.899746e+01

----------------------------Distribution of species----------------------------

                                               Log       Log       Log    mole V
   Species          Molality    Activity  Molality  Activity     Gamma   cm³/mol

   H+              8.735e-04   8.460e-04    -3.059    -3.073    -0.014      0.00
   OH-             1.201e-11   1.162e-11   -10.920   -10.935    -0.015     -4.11
   H2O             5.551e+01   9.711e-01     1.744    -0.013     0.000     18.07
C(-4)         1.131e-32
   CH4             1.131e-32   1.132e-32   -31.946   -31.946     0.000     35.46
C(4)          1.745e+00
   CO2             1.655e+00   1.655e+00     0.219     0.219     0.000     34.79
   (CO2)2          4.455e-02   4.455e-02    -1.351    -1.351     0.000     68.75
   HCO3-           8.735e-04   8.451e-04    -3.059    -3.073    -0.014     24.55
   CO3-2           5.345e-11   4.685e-11   -10.272   -10.329    -0.057     -4.68
H(0)          1.013e-17
   H2              5.066e-18   5.067e-18   -17.295   -17.295     0.000     14.99
O(0)          0.000e+00
   O2              0.000e+00   0.000e+00   -57.798   -57.798     0.000     30.40

------------------------------Saturation indices-------------------------------

  Phase               SI** log IAP   log K(298 K,   1 atm)

  CH4(g)          -29.14    -31.95   -2.80  CH4
  CO2(g)            1.69      0.22   -1.47  CO2	 Pressure 121.1 atm, phi 0.402
  H2(g)           -14.20    -17.30   -3.10  H2
  H2O(g)           -1.52     -0.01    1.50  H2O
  O2(g)           -54.91    -57.80   -2.89  O2

**For a gas, SI = log10(fugacity). Fugacity = pressure * phi / 1 atm.
  For ideal gases, phi = 1.

------------------
End of simulation.
------------------

------------------------------------
Reading input data for simulation 9.
------------------------------------

		SOLUTION 1
	 temp 25
	C 1 CO2(g)   2.1495e+00
	  pH 2 charge
	END
-------------------------------------------
Beginning of initial solution calculations.
-------------------------------------------

Initial solution 1.	

-----------------------------Solution composition------------------------------

	Elements           Molality       Moles

	C                 1.825e+00   1.825e+00  Equilibrium with CO2(g)

----------------------------Description of solution----------------------------

                                       pH  =   3.064      Charge balance
                                       pe  =   4.000    
      Specific Conductance (µS/cm,  25°C)  = 297
                          Density (g/cm³)  =   1.01306
                               Volume (L)  =   1.06643
                        Viscosity (mPa s)  =   1.01483
                        Activity of water  =   0.970
                 Ionic strength (mol/kgw)  =   8.920e-04
                       Mass of water (kg)  =   1.000e+00
                 Total alkalinity (eq/kg)  =   1.782e-15
                       Total CO2 (mol/kg)  =   1.825e+00
                         Temperature (°C)  =  25.00
                  Electrical balance (eq)  =  -1.782e-15
 Percent error, 100*(Cat-|An|)/(Cat+|An|)  =  -0.00
                               Iterations  =   7
                                  Total H  = 1.110142e+02
                                  Total O  = 5.915776e+01

----------------------------Distribution of species----------------------------

                                               Log       Log       Log    mole V
   Species          Molality    Activity  Molality  Activity     Gamma   cm³/mol

   H+              8.920e-04   8.637e-04    -3.050    -3.064    -0.014      0.00
   OH-             1.176e-11   1.136e-11   -10.930   -10.944    -0.015     -4.11
   H2O             5.551e+01   9.698e-01     1.744    -0.013     0.000     18.07
C(-4)         1.397e-32
   CH4             1.397e-32   1.397e-32   -31.855   -31.855     0.000     35.46
C(4)          1.825e+00
   CO2             1.727e+00   1.728e+00     0.237     0.237     0.000     34.79
   (CO2)2          4.852e-02   4.852e-02    -1.314    -1.314     0.000     68.75
   HCO3-           8.920e-04   8.628e-04    -3.050    -3.064    -0.014     24.55
   CO3-2           5.352e-11   4.685e-11   -10.271   -10.329    -0.058     -4.68
H(0)          1.056e-17
   H2              5.280e-18   5.281e-18   -17.277   -17.277     0.000     14.99
O(0)          0.000e+00
   O2              0.000e+00   0.000e+00   -57.835   -57.835     0.000     30.40

------------------------------Saturation indices-------------------------------

  Phase               SI** log IAP   log K(298 K,   1 atm)

  CH4(g)          -29.05    -31.85   -2.80  CH4
  CO2(g)            1.71      0.24   -1.47  CO2	 Pressure 141.1 atm, phi 0.360
  H2(g)           -14.18    -17.28   -3.10  H2
  H2O(g)           -1.52     -0.01    1.50  H2O
  O2(g)           -54.94    -57.83   -2.89  O2

**For a gas, SI = log10(fugacity). Fugacity = pressure * phi / 1 atm.
  For ideal gases, phi = 1.

------------------
End of simulation.
------------------

-------------------------------------
Reading input data for simulation 10.
-------------------------------------

		SOLUTION 1
	 temp 25
	C 1 CO2(g)   2.2071e+00
	  pH 2 charge
	END
-------------------------------------------
Beginning of initial solution calculations.
-------------------------------------------

Initial solution 1.	

-----------------------------Solution composition------------------------------

	Elements           Molality       Moles

	C                 1.907e+00   1.907e+00  Equilibrium with CO2(g)

----------------------------Description of solution----------------------------

                                       pH  =   3.055      Charge balance
                                       pe  =   4.000    
      Specific Conductance (µS/cm,  25°C)  = 301
                          Density (g/cm³)  =   1.01373
                               Volume (L)  =   1.06925
                        Viscosity (mPa s)  =   1.02035
                        Activity of water  =   0.968
                 Ionic strength (mol/kgw)  =   9.103e-04
                       Mass of water (kg)  =   1.000e+00
                 Total alkalinity (eq/kg)  =   2.197e-15
                       Total CO2 (mol/kg)  =   1.907e+00
                         Temperature (°C)  =  25.00
                  Electrical balance (eq)  =  -2.197e-15
 Percent error, 100*(Cat-|An|)/(Cat+|An|)  =  -0.00
                               Iterations  =   7
                                  Total H  = 1.110143e+02
                                  Total O  = 5.932018e+01

----------------------------Distribution of species----------------------------

                                               Log       Log       Log    mole V
   Species          Molality    Activity  Molality  Activity     Gamma   cm³/mol

   H+              9.103e-04   8.811e-04    -3.041    -3.055    -0.014      0.00
   OH-             1.151e-11   1.112e-11   -10.939   -10.954    -0.015     -4.11
   H2O             5.551e+01   9.685e-01     1.744    -0.014     0.000     18.07
C(-4)         1.713e-32
   CH4             1.713e-32   1.713e-32   -31.766   -31.766     0.000     35.46
C(4)          1.907e+00
   CO2             1.800e+00   1.800e+00     0.255     0.255     0.000     34.79
   (CO2)2          5.269e-02   5.270e-02    -1.278    -1.278     0.000     68.75
   HCO3-           9.103e-04   8.802e-04    -3.041    -3.055    -0.015     24.56
   CO3-2           5.359e-11   4.685e-11   -10.271   -10.329    -0.058     -4.68
H(0)          1.099e-17
   H2              5.495e-18   5.496e-18   -17.260   -17.260     0.000     14.99
O(0)          0.000e+00
   O2              0.000e+00   0.000e+00   -57.871   -57.871     0.000     30.40

------------------------------Saturation indices-------------------------------

  Phase               SI** log IAP   log K(298 K,   1 atm)

  CH4(g)          -28.96    -31.77   -2.80  CH4
  CO2(g)            1.72      0.26   -1.47  CO2	 Pressure 161.1 atm, phi 0.328
  H2(g)           -14.16    -17.26   -3.10  H2
  H2O(g)           -1.52     -0.01    1.50  H2O
  O2(g)           -54.98    -57.87   -2.89  O2

**For a gas, SI = log10(fugacity). Fugacity = pressure * phi / 1 atm.
  For ideal gases, phi = 1.

------------------
End of simulation.
------------------

-------------------------------------
Reading input data for simulation 11.
-------------------------------------

		SOLUTION 1
	 temp 25
	C 1 CO2(g)   2.2579e+00
	  pH 2 charge
	END
-------------------------------------------
Beginning of initial solution calculations.
-------------------------------------------

Initial solution 1.	

-----------------------------Solution composition------------------------------

	Elements           Molality       Moles

	C                 1.989e+00   1.989e+00  Equilibrium with CO2(g)

----------------------------Description of solution----------------------------

                                       pH  =   3.047      Charge balance
                                       pe  =   4.000    
      Specific Conductance (µS/cm,  25°C)  = 305
                          Density (g/cm³)  =   1.01440
                               Volume (L)  =   1.07212
                        Viscosity (mPa s)  =   1.02596
                        Activity of water  =   0.967
                 Ionic strength (mol/kgw)  =   9.284e-04
                       Mass of water (kg)  =   1.000e+00
                 Total alkalinity (eq/kg)  =   2.672e-15
                       Total CO2 (mol/kg)  =   1.989e+00
                         Temperature (°C)  =  25.00
                  Electrical balance (eq)  =  -2.672e-15
 Percent error, 100*(Cat-|An|)/(Cat+|An|)  =  -0.00
                               Iterations  =   7
                                  Total H  = 1.110143e+02
                                  Total O  = 5.948533e+01

----------------------------Distribution of species----------------------------

                                               Log       Log       Log    mole V
   Species          Molality    Activity  Molality  Activity     Gamma   cm³/mol

   H+              9.284e-04   8.984e-04    -3.032    -3.047    -0.014      0.00
   OH-             1.128e-11   1.090e-11   -10.948   -10.963    -0.015     -4.11
   H2O             5.551e+01   9.671e-01     1.744    -0.015     0.000     18.07
C(-4)         2.088e-32
   CH4             2.088e-32   2.089e-32   -31.680   -31.680     0.000     35.46
C(4)          1.989e+00
   CO2             1.874e+00   1.874e+00     0.273     0.273     0.000     34.79
   (CO2)2          5.710e-02   5.711e-02    -1.243    -1.243     0.000     68.75
   HCO3-           9.284e-04   8.974e-04    -3.032    -3.047    -0.015     24.56
   CO3-2           5.366e-11   4.685e-11   -10.270   -10.329    -0.059     -4.68
H(0)          1.143e-17
   H2              5.713e-18   5.714e-18   -17.243   -17.243     0.000     14.99
O(0)          0.000e+00
   O2              0.000e+00   0.000e+00   -57.906   -57.905     0.000     30.40

------------------------------Saturation indices-------------------------------

  Phase               SI** log IAP   log K(298 K,   1 atm)

  CH4(g)          -28.88    -31.68   -2.80  CH4
  CO2(g)            1.74      0.27   -1.47  CO2	 Pressure 181.1 atm, phi 0.304
  H2(g)           -14.14    -17.24   -3.10  H2
  H2O(g)           -1.52     -0.01    1.50  H2O
  O2(g)           -55.01    -57.91   -2.89  O2

**For a gas, SI = log10(fugacity). Fugacity = pressure * phi / 1 atm.
  For ideal gases, phi = 1.

------------------
End of simulation.
------------------

-------------------------------------
Reading input data for simulation 12.
-------------------------------------

		SOLUTION 1
	 temp 25
	C 1 CO2(g)   2.3034e+00
	  pH 2 charge
	END
-------------------------------------------
Beginning of initial solution calculations.
-------------------------------------------

Initial solution 1.	

-----------------------------Solution composition------------------------------

	Elements           Molality       Moles

	C                 2.073e+00   2.073e+00  Equilibrium with CO2(g)

----------------------------Description of solution----------------------------

                                       pH  =   3.038      Charge balance
                                       pe  =   4.000    
      Specific Conductance (µS/cm,  25°C)  = 308
                          Density (g/cm³)  =   1.01509
                               Volume (L)  =   1.07505
                        Viscosity (mPa s)  =   1.03169
                        Activity of water  =   0.966
                 Ionic strength (mol/kgw)  =   9.464e-04
                       Mass of water (kg)  =   1.000e+00
                 Total alkalinity (eq/kg)  =   3.212e-15
                       Total CO2 (mol/kg)  =   2.073e+00
                         Temperature (°C)  =  25.00
                  Electrical balance (eq)  =  -3.212e-15
 Percent error, 100*(Cat-|An|)/(Cat+|An|)  =  -0.00
                               Iterations  =   7
                                  Total H  = 1.110143e+02
                                  Total O  = 5.965403e+01

----------------------------Distribution of species----------------------------

                                               Log       Log       Log    mole V
   Species          Molality    Activity  Molality  Activity     Gamma   cm³/mol

   H+              9.464e-04   9.156e-04    -3.024    -3.038    -0.014      0.00
   OH-             1.106e-11   1.068e-11   -10.956   -10.972    -0.015     -4.11
   H2O             5.551e+01   9.658e-01     1.744    -0.015     0.000     18.07
C(-4)         2.534e-32
   CH4             2.534e-32   2.534e-32   -31.596   -31.596     0.000     35.46
C(4)          2.073e+00
   CO2             1.949e+00   1.949e+00     0.290     0.290     0.000     34.79
   (CO2)2          6.176e-02   6.177e-02    -1.209    -1.209     0.000     68.75
   HCO3-           9.464e-04   9.145e-04    -3.024    -3.039    -0.015     24.56
   CO3-2           5.372e-11   4.684e-11   -10.270   -10.329    -0.060     -4.68
H(0)          1.187e-17
   H2              5.933e-18   5.934e-18   -17.227   -17.227     0.000     14.99
O(0)          0.000e+00
   O2              0.000e+00   0.000e+00   -57.940   -57.940     0.000     30.40

------------------------------Saturation indices-------------------------------

  Phase               SI** log IAP   log K(298 K,   1 atm)

  CH4(g)          -28.79    -31.60   -2.80  CH4
  CO2(g)            1.76      0.29   -1.47  CO2	 Pressure 201.1 atm, phi 0.285
  H2(g)           -14.13    -17.23   -3.10  H2
  H2O(g)           -1.52     -0.02    1.50  H2O
  O2(g)           -55.05    -57.94   -2.89  O2

**For a gas, SI = log10(fugacity). Fugacity = pressure * phi / 1 atm.
  For ideal gases, phi = 1.

------------------
End of simulation.
------------------

-------------------------------------
Reading input data for simulation 13.
-------------------------------------

		SOLUTION 1
	 temp 25
	C 1 CO2(g)   2.3446e+00
	  pH 2 charge
	END
-------------------------------------------
Beginning of initial solution calculations.
-------------------------------------------

Initial solution 1.	

-----------------------------Solution composition------------------------------

	Elements           Molality       Moles

	C                 2.160e+00   2.160e+00  Equilibrium with CO2(g)

----------------------------Description of solution----------------------------

                                       pH  =   3.030      Charge balance
                                       pe  =   4.000    
      Specific Conductance (µS/cm,  25°C)  = 312
                          Density (g/cm³)  =   1.01579
                               Volume (L)  =   1.07805
                        Viscosity (mPa s)  =   1.03755
                        Activity of water  =   0.964
                 Ionic strength (mol/kgw)  =   9.644e-04
                       Mass of water (kg)  =   1.000e+00
                 Total alkalinity (eq/kg)  =   3.859e-15
                       Total CO2 (mol/kg)  =   2.160e+00
                         Temperature (°C)  =  25.00
                  Electrical balance (eq)  =  -3.859e-15
 Percent error, 100*(Cat-|An|)/(Cat+|An|)  =  -0.00
                               Iterations  =   7
                                  Total H  = 1.110144e+02
                                  Total O  = 5.982674e+01

----------------------------Distribution of species----------------------------

                                               Log       Log       Log    mole V
   Species          Molality    Activity  Molality  Activity     Gamma   cm³/mol

   H+              9.644e-04   9.327e-04    -3.016    -3.030    -0.015      0.00
   OH-             1.084e-11   1.047e-11   -10.965   -10.980    -0.015     -4.11
   H2O             5.551e+01   9.644e-01     1.744    -0.016     0.000     18.07
C(-4)         3.063e-32
   CH4             3.063e-32   3.063e-32   -31.514   -31.514     0.000     35.46
C(4)          2.160e+00
   CO2             2.025e+00   2.026e+00     0.307     0.307     0.000     34.79
   (CO2)2          6.670e-02   6.671e-02    -1.176    -1.176     0.000     68.75
   HCO3-           9.644e-04   9.316e-04    -3.016    -3.031    -0.015     24.56
   CO3-2           5.379e-11   4.684e-11   -10.269   -10.329    -0.060     -4.68
H(0)          1.231e-17
   H2              6.157e-18   6.158e-18   -17.211   -17.211     0.000     14.99
O(0)          0.000e+00
   O2              0.000e+00   0.000e+00   -57.973   -57.973     0.000     30.40

------------------------------Saturation indices-------------------------------

  Phase               SI** log IAP   log K(298 K,   1 atm)

  CH4(g)          -28.71    -31.51   -2.80  CH4
  CO2(g)            1.77      0.31   -1.47  CO2	 Pressure 221.1 atm, phi 0.269
  H2(g)           -14.11    -17.21   -3.10  H2
  H2O(g)           -1.52     -0.02    1.50  H2O
  O2(g)           -55.08    -57.97   -2.89  O2

**For a gas, SI = log10(fugacity). Fugacity = pressure * phi / 1 atm.
  For ideal gases, phi = 1.

------------------
End of simulation.
------------------

-------------------------------------
Reading input data for simulation 14.
-------------------------------------

		SOLUTION 1
	 temp 25
	C 1 CO2(g)   2.3822e+00
	  pH 2 charge
	END
-------------------------------------------
Beginning of initial solution calculations.
-------------------------------------------

Initial solution 1.	

-----------------------------Solution composition------------------------------

	Elements           Molality       Moles

	C                 2.248e+00   2.248e+00  Equilibrium with CO2(g)

----------------------------Description of solution----------------------------

                                       pH  =   3.022      Charge balance
                                       pe  =   4.000    
      Specific Conductance (µS/cm,  25°C)  = 316
                          Density (g/cm³)  =   1.01651
                               Volume (L)  =   1.08112
                        Viscosity (mPa s)  =   1.04355
                        Activity of water  =   0.963
                 Ionic strength (mol/kgw)  =   9.823e-04
                       Mass of water (kg)  =   1.000e+00
                 Total alkalinity (eq/kg)  =   4.647e-15
                       Total CO2 (mol/kg)  =   2.248e+00
                         Temperature (°C)  =  25.00
                  Electrical balance (eq)  =  -4.647e-15
 Percent error, 100*(Cat-|An|)/(Cat+|An|)  =  -0.00
                               Iterations  =   7
                                  Total H  = 1.110144e+02
                                  Total O  = 6.000364e+01

----------------------------Distribution of species----------------------------

                                               Log       Log       Log    mole V
   Species          Molality    Activity  Molality  Activity     Gamma   cm³/mol

   H+              9.823e-04   9.498e-04    -3.008    -3.022    -0.015      0.00
   OH-             1.063e-11   1.026e-11   -10.973   -10.989    -0.015     -4.11
   H2O             5.551e+01   9.630e-01     1.744    -0.016     0.000     18.07
C(-4)         3.689e-32
   CH4             3.689e-32   3.690e-32   -31.433   -31.433     0.000     35.46
C(4)          2.248e+00
   CO2             2.103e+00   2.104e+00     0.323     0.323     0.000     34.79
   (CO2)2          7.194e-02   7.195e-02    -1.143    -1.143     0.000     68.75
   HCO3-           9.823e-04   9.487e-04    -3.008    -3.023    -0.015     24.56
   CO3-2           5.385e-11   4.684e-11   -10.269   -10.329    -0.061     -4.67
H(0)          1.277e-17
   H2              6.385e-18   6.386e-18   -17.195   -17.195     0.000     14.99
O(0)          0.000e+00
   O2              0.000e+00   0.000e+00   -58.006   -58.006     0.000     30.40

------------------------------Saturation indices-------------------------------

  Phase               SI** log IAP   log K(298 K,   1 atm)

  CH4(g)          -28.63    -31.43   -2.80  CH4
  CO2(g)            1.79      0.32   -1.47  CO2	 Pressure 241.1 atm, phi 0.256
  H2(g)           -14.10    -17.19   -3.10  H2
  H2O(g)           -1.52     -0.02    1.50  H2O
  O2(g)           -55.11    -58.01   -2.89  O2

**For a gas, SI = log10(fugacity). Fugacity = pressure * phi / 1 atm.
  For ideal gases, phi = 1.

------------------
End of simulation.
------------------

-------------------------------------
Reading input data for simulation 15.
-------------------------------------

		SOLUTION 1
	 temp 25
	C 1 CO2(g)   2.4168e+00
	  pH 2 charge
	END
-------------------------------------------
Beginning of initial solution calculations.
-------------------------------------------

Initial solution 1.	

-----------------------------Solution composition------------------------------

	Elements           Molality       Moles

	C                 2.339e+00   2.339e+00  Equilibrium with CO2(g)

----------------------------Description of solution----------------------------

                                       pH  =   3.015      Charge balance
                                       pe  =   4.000    
      Specific Conductance (µS/cm,  25°C)  = 319
                          Density (g/cm³)  =   1.01723
                               Volume (L)  =   1.08427
                        Viscosity (mPa s)  =   1.04970
                        Activity of water  =   0.962
                 Ionic strength (mol/kgw)  =   1.000e-03
                       Mass of water (kg)  =   1.000e+00
                 Total alkalinity (eq/kg)  =   5.624e-15
                       Total CO2 (mol/kg)  =   2.339e+00
                         Temperature (°C)  =  25.00
                  Electrical balance (eq)  =  -5.624e-15
 Percent error, 100*(Cat-|An|)/(Cat+|An|)  =  -0.00
                               Iterations  =   7
                                  Total H  = 1.110144e+02
                                  Total O  = 6.018519e+01

----------------------------Distribution of species----------------------------

                                               Log       Log       Log    mole V
   Species          Molality    Activity  Molality  Activity     Gamma   cm³/mol

   H+              1.000e-03   9.669e-04    -3.000    -3.015    -0.015      0.00
   OH-             1.043e-11   1.007e-11   -10.982   -10.997    -0.016     -4.11
   H2O             5.551e+01   9.615e-01     1.744    -0.017     0.000     18.07
C(-4)         4.429e-32
   CH4             4.429e-32   4.430e-32   -31.354   -31.354     0.000     35.46
C(4)          2.339e+00
   CO2             2.183e+00   2.183e+00     0.339     0.339     0.000     34.79
   (CO2)2          7.749e-02   7.750e-02    -1.111    -1.111     0.000     68.75
   HCO3-           1.000e-03   9.657e-04    -3.000    -3.015    -0.015     24.56
   CO3-2           5.392e-11   4.684e-11   -10.268   -10.329    -0.061     -4.67
H(0)          1.323e-17
   H2              6.617e-18   6.618e-18   -17.179   -17.179     0.000     14.99
O(0)          0.000e+00
   O2              0.000e+00   0.000e+00   -58.038   -58.038     0.000     30.40

------------------------------Saturation indices-------------------------------

  Phase               SI** log IAP   log K(298 K,   1 atm)

  CH4(g)          -28.55    -31.35   -2.80  CH4
  CO2(g)            1.81      0.34   -1.47  CO2	 Pressure 261.1 atm, phi 0.246
  H2(g)           -14.08    -17.18   -3.10  H2
  H2O(g)           -1.52     -0.02    1.50  H2O
  O2(g)           -55.15    -58.04   -2.89  O2

**For a gas, SI = log10(fugacity). Fugacity = pressure * phi / 1 atm.
  For ideal gases, phi = 1.

------------------
End of simulation.
------------------

-------------------------------------
Reading input data for simulation 16.
-------------------------------------

		SOLUTION 1
	 temp 25
	C 1 CO2(g)   2.4489e+00
	  pH 2 charge
	END
-------------------------------------------
Beginning of initial solution calculations.
-------------------------------------------

Initial solution 1.	

-----------------------------Solution composition------------------------------

	Elements           Molality       Moles

	C                 2.432e+00   2.432e+00  Equilibrium with CO2(g)

----------------------------Description of solution----------------------------

                                       pH  =   3.007      Charge balance
                                       pe  =   4.000    
      Specific Conductance (µS/cm,  25°C)  = 322
                          Density (g/cm³)  =   1.01798
                               Volume (L)  =   1.08752
                        Viscosity (mPa s)  =   1.05603
                        Activity of water  =   0.960
                 Ionic strength (mol/kgw)  =   1.018e-03
                       Mass of water (kg)  =   1.000e+00
                 Total alkalinity (eq/kg)  =   6.855e-15
                       Total CO2 (mol/kg)  =   2.432e+00
                         Temperature (°C)  =  25.00
                  Electrical balance (eq)  =  -6.855e-15
 Percent error, 100*(Cat-|An|)/(Cat+|An|)  =  -0.00
                               Iterations  =   7
                                  Total H  = 1.110145e+02
                                  Total O  = 6.037204e+01

----------------------------Distribution of species----------------------------

                                               Log       Log       Log    mole V
   Species          Molality    Activity  Molality  Activity     Gamma   cm³/mol

   H+              1.018e-03   9.840e-04    -2.992    -3.007    -0.015      0.00
   OH-             1.024e-11   9.875e-12   -10.990   -11.005    -0.016     -4.11
   H2O             5.551e+01   9.600e-01     1.744    -0.018     0.000     18.07
C(-4)         5.305e-32
   CH4             5.305e-32   5.306e-32   -31.275   -31.275     0.000     35.46
C(4)          2.432e+00
   CO2             2.265e+00   2.265e+00     0.355     0.355     0.000     34.79
   (CO2)2          8.339e-02   8.340e-02    -1.079    -1.079     0.000     68.75
   HCO3-           1.018e-03   9.828e-04    -2.992    -3.008    -0.015     24.56
   CO3-2           5.398e-11   4.684e-11   -10.268   -10.329    -0.062     -4.67
H(0)          1.371e-17
   H2              6.853e-18   6.855e-18   -17.164   -17.164     0.000     14.99
O(0)          0.000e+00
   O2              0.000e+00   0.000e+00   -58.070   -58.070     0.000     30.40

------------------------------Saturation indices-------------------------------

  Phase               SI** log IAP   log K(298 K,   1 atm)

  CH4(g)          -28.47    -31.28   -2.80  CH4
  CO2(g)            1.82      0.36   -1.47  CO2	 Pressure 281.1 atm, phi 0.237
  H2(g)           -14.06    -17.16   -3.10  H2
  H2O(g)           -1.52     -0.02    1.50  H2O
  O2(g)           -55.18    -58.07   -2.89  O2

**For a gas, SI = log10(fugacity). Fugacity = pressure * phi / 1 atm.
  For ideal gases, phi = 1.

------------------
End of simulation.
------------------

-------------------------------------
Reading input data for simulation 17.
-------------------------------------

		SOLUTION 1
	 temp 25
	C 1 CO2(g)   2.4787e+00
	  pH 2 charge
	END
-------------------------------------------
Beginning of initial solution calculations.
-------------------------------------------

Initial solution 1.	

-----------------------------Solution composition------------------------------

	Elements           Molality       Moles

	C                 2.528e+00   2.528e+00  Equilibrium with CO2(g)

----------------------------Description of solution----------------------------

                                       pH  =   2.999      Charge balance
                                       pe  =   4.000    
      Specific Conductance (µS/cm,  25°C)  = 326
                          Density (g/cm³)  =   1.01874
                               Volume (L)  =   1.09084
                        Viscosity (mPa s)  =   1.06252
                        Activity of water  =   0.959
                 Ionic strength (mol/kgw)  =   1.036e-03
                       Mass of water (kg)  =   1.000e+00
                 Total alkalinity (eq/kg)  =   8.431e-15
                       Total CO2 (mol/kg)  =   2.528e+00
                         Temperature (°C)  =  25.00
                  Electrical balance (eq)  =  -8.431e-15
 Percent error, 100*(Cat-|An|)/(Cat+|An|)  =  -0.00
                               Iterations  =   7
                                  Total H  = 1.110145e+02
                                  Total O  = 6.056358e+01

----------------------------Distribution of species----------------------------

                                               Log       Log       Log    mole V
   Species          Molality    Activity  Molality  Activity     Gamma   cm³/mol

   H+              1.036e-03   1.001e-03    -2.985    -2.999    -0.015      0.00
   OH-             1.005e-11   9.691e-12   -10.998   -11.014    -0.016     -4.11
   H2O             5.551e+01   9.585e-01     1.744    -0.018     0.000     18.07
C(-4)         6.335e-32
   CH4             6.335e-32   6.337e-32   -31.198   -31.198     0.000     35.46
C(4)          2.528e+00
   CO2             2.348e+00   2.348e+00     0.371     0.371     0.000     34.79
   (CO2)2          8.963e-02   8.965e-02    -1.048    -1.047     0.000     68.75
   HCO3-           1.036e-03   9.999e-04    -2.985    -3.000    -0.016     24.56
   CO3-2           5.404e-11   4.684e-11   -10.267   -10.329    -0.062     -4.67
H(0)          1.419e-17
   H2              7.094e-18   7.096e-18   -17.149   -17.149     0.000     14.99
O(0)          0.000e+00
   O2              0.000e+00   0.000e+00   -58.101   -58.101     0.000     30.40

------------------------------Saturation indices-------------------------------

  Phase               SI** log IAP   log K(298 K,   1 atm)

  CH4(g)          -28.40    -31.20   -2.80  CH4
  CO2(g)            1.84      0.37   -1.47  CO2	 Pressure 301.1 atm, phi 0.229
  H2(g)           -14.05    -17.15   -3.10  H2
  H2O(g)           -1.52     -0.02    1.50  H2O
  O2(g)           -55.21    -58.10   -2.89  O2

**For a gas, SI = log10(fugacity). Fugacity = pressure * phi / 1 atm.
  For ideal gases, phi = 1.

------------------
End of simulation.
------------------

-------------------------------------
Reading input data for simulation 18.
-------------------------------------

		SOLUTION 1
	 temp 25
	C 1 CO2(g)   2.5066e+00
	  pH 2 charge
	END
-------------------------------------------
Beginning of initial solution calculations.
-------------------------------------------

Initial solution 1.	

-----------------------------Solution composition------------------------------

	Elements           Molality       Moles

	C                 2.627e+00   2.627e+00  Equilibrium with CO2(g)

----------------------------Description of solution----------------------------

                                       pH  =   2.992      Charge balance
                                       pe  =   4.000    
      Specific Conductance (µS/cm,  25°C)  = 329
                          Density (g/cm³)  =   1.01952
                               Volume (L)  =   1.09427
                        Viscosity (mPa s)  =   1.06919
                        Activity of water  =   0.957
                 Ionic strength (mol/kgw)  =   1.054e-03
                       Mass of water (kg)  =   1.000e+00
                 Total alkalinity (eq/kg)  =   1.047e-14
                       Total CO2 (mol/kg)  =   2.627e+00
                         Temperature (°C)  =  25.00
                  Electrical balance (eq)  =  -1.047e-14
 Percent error, 100*(Cat-|An|)/(Cat+|An|)  =  -0.00
                               Iterations  =   7
                                  Total H  = 1.110145e+02
                                  Total O  = 6.076077e+01

----------------------------Distribution of species----------------------------

                                               Log       Log       Log    mole V
   Species          Molality    Activity  Molality  Activity     Gamma   cm³/mol

   H+              1.054e-03   1.018e-03    -2.977    -2.992    -0.015      0.00
   OH-             9.867e-12   9.511e-12   -11.006   -11.022    -0.016     -4.11
   H2O             5.551e+01   9.570e-01     1.744    -0.019     0.000     18.07
C(-4)         7.549e-32
   CH4             7.549e-32   7.551e-32   -31.122   -31.122     0.000     35.46
C(4)          2.627e+00
   CO2             2.433e+00   2.434e+00     0.386     0.386     0.000     34.79
   (CO2)2          9.626e-02   9.628e-02    -1.017    -1.016     0.000     68.75
   HCO3-           1.054e-03   1.017e-03    -2.977    -2.993    -0.016     24.56
   CO3-2           5.411e-11   4.684e-11   -10.267   -10.329    -0.063     -4.67
H(0)          1.468e-17
   H2              7.340e-18   7.342e-18   -17.134   -17.134     0.000     14.99
O(0)          0.000e+00
   O2              0.000e+00   0.000e+00   -58.133   -58.132     0.000     30.40

------------------------------Saturation indices-------------------------------

  Phase               SI** log IAP   log K(298 K,   1 atm)

  CH4(g)          -28.32    -31.12   -2.80  CH4
  CO2(g)            1.85      0.39   -1.47  CO2	 Pressure 321.1 atm, phi 0.223
  H2(g)           -14.03    -17.13   -3.10  H2
  H2O(g)           -1.52     -0.02    1.50  H2O
  O2(g)           -55.24    -58.13   -2.89  O2

**For a gas, SI = log10(fugacity). Fugacity = pressure * phi / 1 atm.
  For ideal gases, phi = 1.

------------------
End of simulation.
------------------

-------------------------------------
Reading input data for simulation 19.
-------------------------------------

		SOLUTION 1
	 temp 25
	C 1 CO2(g)   2.5329e+00
	  pH 2 charge
	END
-------------------------------------------
Beginning of initial solution calculations.
-------------------------------------------

Initial solution 1.	

-----------------------------Solution composition------------------------------

	Elements           Molality       Moles

	C                 2.729e+00   2.729e+00  Equilibrium with CO2(g)

----------------------------Description of solution----------------------------

                                       pH  =   2.985      Charge balance
                                       pe  =   4.000    
      Specific Conductance (µS/cm,  25°C)  = 332
                          Density (g/cm³)  =   1.02031
                               Volume (L)  =   1.09781
                        Viscosity (mPa s)  =   1.07609
                        Activity of water  =   0.955
                 Ionic strength (mol/kgw)  =   1.073e-03
                       Mass of water (kg)  =   1.000e+00
                 Total alkalinity (eq/kg)  =   1.315e-14
                       Total CO2 (mol/kg)  =   2.729e+00
                         Temperature (°C)  =  25.00
                  Electrical balance (eq)  =  -1.315e-14
 Percent error, 100*(Cat-|An|)/(Cat+|An|)  =  -0.00
                               Iterations  =   7
                                  Total H  = 1.110146e+02
                                  Total O  = 6.096447e+01

----------------------------Distribution of species----------------------------

                                               Log       Log       Log    mole V
   Species          Molality    Activity  Molality  Activity     Gamma   cm³/mol

   H+              1.073e-03   1.036e-03    -2.970    -2.985    -0.015      0.00
   OH-             9.689e-12   9.336e-12   -11.014   -11.030    -0.016     -4.11
   H2O             5.551e+01   9.554e-01     1.744    -0.020     0.000     18.07
C(-4)         8.981e-32
   CH4             8.981e-32   8.984e-32   -31.047   -31.047     0.000     35.46
C(4)          2.729e+00
   CO2             2.521e+00   2.521e+00     0.402     0.402     0.000     34.79
   (CO2)2          1.033e-01   1.033e-01    -0.986    -0.986     0.000     68.75
   HCO3-           1.073e-03   1.034e-03    -2.970    -2.985    -0.016     24.56
   CO3-2           5.417e-11   4.684e-11   -10.266   -10.329    -0.063     -4.67
H(0)          1.518e-17
   H2              7.592e-18   7.594e-18   -17.120   -17.120     0.000     14.99
O(0)          0.000e+00
   O2              0.000e+00   0.000e+00   -58.163   -58.163     0.000     30.40

------------------------------Saturation indices-------------------------------

  Phase               SI** log IAP   log K(298 K,   1 atm)

  CH4(g)          -28.24    -31.05   -2.80  CH4
  CO2(g)            1.87      0.40   -1.47  CO2	 Pressure 341.1 atm, phi 0.217
  H2(g)           -14.02    -17.12   -3.10  H2
  H2O(g)           -1.52     -0.02    1.50  H2O
  O2(g)           -55.27    -58.16   -2.89  O2

**For a gas, SI = log10(fugacity). Fugacity = pressure * phi / 1 atm.
  For ideal gases, phi = 1.

------------------
End of simulation.
------------------

-------------------------------------
Reading input data for simulation 20.
-------------------------------------

		SOLUTION 1
	 temp 25
	C 1 CO2(g)   2.5576e+00
	  pH 2 charge
	END
-------------------------------------------
Beginning of initial solution calculations.
-------------------------------------------

Initial solution 1.	

-----------------------------Solution composition------------------------------

	Elements           Molality       Moles

	C                 2.833e+00   2.833e+00  Equilibrium with CO2(g)

----------------------------Description of solution----------------------------

                                       pH  =   2.978      Charge balance
                                       pe  =   4.000    
      Specific Conductance (µS/cm,  25°C)  = 335
                          Density (g/cm³)  =   1.02113
                               Volume (L)  =   1.10143
                        Viscosity (mPa s)  =   1.08315
                        Activity of water  =   0.954
                 Ionic strength (mol/kgw)  =   1.091e-03
                       Mass of water (kg)  =   1.000e+00
                 Total alkalinity (eq/kg)  =   1.665e-14
                       Total CO2 (mol/kg)  =   2.833e+00
                         Temperature (°C)  =  25.00
                  Electrical balance (eq)  =  -1.665e-14
 Percent error, 100*(Cat-|An|)/(Cat+|An|)  =  -0.00
                               Iterations  =   7
                                  Total H  = 1.110146e+02
                                  Total O  = 6.117346e+01

----------------------------Distribution of species----------------------------

                                               Log       Log       Log    mole V
   Species          Molality    Activity  Molality  Activity     Gamma   cm³/mol

   H+              1.091e-03   1.053e-03    -2.962    -2.978    -0.015      0.00
   OH-             9.516e-12   9.167e-12   -11.022   -11.038    -0.016     -4.11
   H2O             5.551e+01   9.537e-01     1.744    -0.021     0.000     18.07
C(-4)         1.066e-31
   CH4             1.066e-31   1.066e-31   -30.972   -30.972     0.000     35.46
C(4)          2.833e+00
   CO2             2.610e+00   2.611e+00     0.417     0.417     0.000     34.79
   (CO2)2          1.108e-01   1.108e-01    -0.955    -0.955     0.000     68.75
   HCO3-           1.091e-03   1.052e-03    -2.962    -2.978    -0.016     24.56
   CO3-2           5.423e-11   4.684e-11   -10.266   -10.329    -0.064     -4.67
H(0)          1.570e-17
   H2              7.848e-18   7.850e-18   -17.105   -17.105     0.000     14.99
O(0)          0.000e+00
   O2              0.000e+00   0.000e+00   -58.194   -58.194     0.000     30.40

------------------------------Saturation indices-------------------------------

  Phase               SI** log IAP   log K(298 K,   1 atm)

  CH4(g)          -28.17    -30.97   -2.80  CH4
  CO2(g)            1.88      0.42   -1.47  CO2	 Pressure 361.1 atm, phi 0.212
  H2(g)           -14.01    -17.11   -3.10  H2
  H2O(g)           -1.52     -0.02    1.50  H2O
  O2(g)           -55.30    -58.19   -2.89  O2

**For a gas, SI = log10(fugacity). Fugacity = pressure * phi / 1 atm.
  For ideal gases, phi = 1.

------------------
End of simulation.
------------------

-------------------------------------
Reading input data for simulation 21.
-------------------------------------

		SOLUTION 1
	 temp 25
	C 1 CO2(g)   2.5810e+00
	  pH 2 charge
	END
-------------------------------------------
Beginning of initial solution calculations.
-------------------------------------------

Initial solution 1.	

-----------------------------Solution composition------------------------------

	Elements           Molality       Moles

	C                 2.941e+00   2.941e+00  Equilibrium with CO2(g)

----------------------------Description of solution----------------------------

                                       pH  =   2.970      Charge balance
                                       pe  =   4.000    
      Specific Conductance (µS/cm,  25°C)  = 338
                          Density (g/cm³)  =   1.02196
                               Volume (L)  =   1.10518
                        Viscosity (mPa s)  =   1.09044
                        Activity of water  =   0.952
                 Ionic strength (mol/kgw)  =   1.109e-03
                       Mass of water (kg)  =   1.000e+00
                 Total alkalinity (eq/kg)  =   2.126e-14
                       Total CO2 (mol/kg)  =   2.941e+00
                         Temperature (°C)  =  25.00
                  Electrical balance (eq)  =  -2.126e-14
 Percent error, 100*(Cat-|An|)/(Cat+|An|)  =  -0.00
                               Iterations  =   7
                                  Total H  = 1.110147e+02
                                  Total O  = 6.138910e+01

----------------------------Distribution of species----------------------------

                                               Log       Log       Log    mole V
   Species          Molality    Activity  Molality  Activity     Gamma   cm³/mol

   H+              1.109e-03   1.070e-03    -2.955    -2.970    -0.015      0.00
   OH-             9.347e-12   9.001e-12   -11.029   -11.046    -0.016     -4.11
   H2O             5.551e+01   9.520e-01     1.744    -0.021     0.000     18.07
C(-4)         1.263e-31
   CH4             1.263e-31   1.263e-31   -30.899   -30.899     0.000     35.46
C(4)          2.941e+00
   CO2             2.702e+00   2.703e+00     0.432     0.432     0.000     34.79
   (CO2)2          1.187e-01   1.188e-01    -0.925    -0.925     0.000     68.75
   HCO3-           1.109e-03   1.069e-03    -2.955    -2.971    -0.016     24.56
   CO3-2           5.429e-11   4.684e-11   -10.265   -10.329    -0.064     -4.67
H(0)          1.622e-17
   H2              8.110e-18   8.112e-18   -17.091   -17.091     0.000     14.99
O(0)          0.000e+00
   O2              0.000e+00   0.000e+00   -58.224   -58.224     0.000     30.40

------------------------------Saturation indices-------------------------------

  Phase               SI** log IAP   log K(298 K,   1 atm)

  CH4(g)          -28.10    -30.90   -2.80  CH4
  CO2(g)            1.90      0.43   -1.47  CO2	 Pressure 381.1 atm, phi 0.208
  H2(g)           -13.99    -17.09   -3.10  H2
  H2O(g)           -1.52     -0.02    1.50  H2O
  O2(g)           -55.33    -58.22   -2.89  O2

**For a gas, SI = log10(fugacity). Fugacity = pressure * phi / 1 atm.
  For ideal gases, phi = 1.

------------------
End of simulation.
------------------

-------------------------------------
Reading input data for simulation 22.
-------------------------------------

		SOLUTION 1
	 temp 25
	C 1 CO2(g)   2.6033e+00
	  pH 2 charge
	END
-------------------------------------------
Beginning of initial solution calculations.
-------------------------------------------

Initial solution 1.	

-----------------------------Solution composition------------------------------

	Elements           Molality       Moles

	C                 3.053e+00   3.053e+00  Equilibrium with CO2(g)

----------------------------Description of solution----------------------------

                                       pH  =   2.963      Charge balance
                                       pe  =   4.000    
      Specific Conductance (µS/cm,  25°C)  = 340
                          Density (g/cm³)  =   1.02282
                               Volume (L)  =   1.10906
                        Viscosity (mPa s)  =   1.09799
                        Activity of water  =   0.950
                 Ionic strength (mol/kgw)  =   1.128e-03
                       Mass of water (kg)  =   1.000e+00
                 Total alkalinity (eq/kg)  =   2.740e-14
                       Total CO2 (mol/kg)  =   3.053e+00
                         Temperature (°C)  =  25.00
                  Electrical balance (eq)  =  -2.740e-14
 Percent error, 100*(Cat-|An|)/(Cat+|An|)  =  -0.00
                               Iterations  =   7
                                  Total H  = 1.110147e+02
                                  Total O  = 6.161243e+01

----------------------------Distribution of species----------------------------

                                               Log       Log       Log    mole V
   Species          Molality    Activity  Molality  Activity     Gamma   cm³/mol

   H+              1.128e-03   1.088e-03    -2.948    -2.963    -0.016      0.00
   OH-             9.182e-12   8.840e-12   -11.037   -11.054    -0.016     -4.11
   H2O             5.551e+01   9.503e-01     1.744    -0.022     0.000     18.07
C(-4)         1.495e-31
   CH4             1.495e-31   1.495e-31   -30.825   -30.825     0.000     35.46
C(4)          3.053e+00
   CO2             2.797e+00   2.797e+00     0.447     0.447     0.000     34.79
   (CO2)2          1.272e-01   1.272e-01    -0.895    -0.895     0.000     68.75
   HCO3-           1.128e-03   1.087e-03    -2.948    -2.964    -0.016     24.56
   CO3-2           5.435e-11   4.683e-11   -10.265   -10.329    -0.065     -4.66
H(0)          1.676e-17
   H2              8.379e-18   8.381e-18   -17.077   -17.077     0.000     14.99
O(0)          0.000e+00
   O2              0.000e+00   0.000e+00   -58.254   -58.254     0.000     30.40

------------------------------Saturation indices-------------------------------

  Phase               SI** log IAP   log K(298 K,   1 atm)

  CH4(g)          -28.02    -30.83   -2.80  CH4
  CO2(g)            1.91      0.45   -1.47  CO2	 Pressure 401.1 atm, phi 0.205
  H2(g)           -13.98    -17.08   -3.10  H2
  H2O(g)           -1.52     -0.02    1.50  H2O
  O2(g)           -55.36    -58.25   -2.89  O2

**For a gas, SI = log10(fugacity). Fugacity = pressure * phi / 1 atm.
  For ideal gases, phi = 1.

------------------
End of simulation.
------------------

-------------------------------------
Reading input data for simulation 23.
-------------------------------------

		SOLUTION 1
	 temp 25
	C 1 CO2(g)   2.6244e+00
	  pH 2 charge
	END
-------------------------------------------
Beginning of initial solution calculations.
-------------------------------------------

Initial solution 1.	

-----------------------------Solution composition------------------------------

	Elements           Molality       Moles

	C                 3.167e+00   3.167e+00  Equilibrium with CO2(g)

----------------------------Description of solution----------------------------

                                       pH  =   2.956      Charge balance
                                       pe  =   4.000    
      Specific Conductance (µS/cm,  25°C)  = 343
                          Density (g/cm³)  =   1.02369
                               Volume (L)  =   1.11303
                        Viscosity (mPa s)  =   1.10572
                        Activity of water  =   0.948
                 Ionic strength (mol/kgw)  =   1.146e-03
                       Mass of water (kg)  =   1.000e+00
                 Total alkalinity (eq/kg)  =   3.545e-14
                       Total CO2 (mol/kg)  =   3.167e+00
                         Temperature (°C)  =  25.00
                  Electrical balance (eq)  =  -3.545e-14
 Percent error, 100*(Cat-|An|)/(Cat+|An|)  =  -0.00
                               Iterations  =   7
                                  Total H  = 1.110147e+02
                                  Total O  = 6.184153e+01

----------------------------Distribution of species----------------------------

                                               Log       Log       Log    mole V
   Species          Molality    Activity  Molality  Activity     Gamma   cm³/mol

   H+              1.146e-03   1.106e-03    -2.941    -2.956    -0.016      0.00
   OH-             9.021e-12   8.682e-12   -11.045   -11.061    -0.017     -4.11
   H2O             5.551e+01   9.485e-01     1.744    -0.023     0.000     18.07
C(-4)         1.765e-31
   CH4             1.765e-31   1.765e-31   -30.753   -30.753     0.000     35.46
C(4)          3.167e+00
   CO2             2.894e+00   2.894e+00     0.461     0.462     0.000     34.79
   (CO2)2          1.361e-01   1.362e-01    -0.866    -0.866     0.000     68.75
   HCO3-           1.146e-03   1.104e-03    -2.941    -2.957    -0.016     24.56
   CO3-2           5.442e-11   4.683e-11   -10.264   -10.329    -0.065     -4.66
H(0)          1.730e-17
   H2              8.652e-18   8.655e-18   -17.063   -17.063     0.000     14.99
O(0)          0.000e+00
   O2              0.000e+00   0.000e+00   -58.283   -58.283     0.000     30.40

------------------------------Saturation indices-------------------------------

  Phase               SI** log IAP   log K(298 K,   1 atm)

  CH4(g)          -27.95    -30.75   -2.80  CH4
  CO2(g)            1.93      0.46   -1.47  CO2	 Pressure 421.1 atm, phi 0.202
  H2(g)           -13.96    -17.06   -3.10  H2
  H2O(g)           -1.53     -0.02    1.50  H2O
  O2(g)           -55.39    -58.28   -2.89  O2

**For a gas, SI = log10(fugacity). Fugacity = pressure * phi / 1 atm.
  For ideal gases, phi = 1.

------------------
End of simulation.
------------------

-------------------------------------
Reading input data for simulation 24.
-------------------------------------

		SOLUTION 1
	 temp 25
	C 1 CO2(g)   2.6445e+00
	  pH 2 charge
	END
-------------------------------------------
Beginning of initial solution calculations.
-------------------------------------------

Initial solution 1.	

-----------------------------Solution composition------------------------------

	Elements           Molality       Moles

	C                 3.285e+00   3.285e+00  Equilibrium with CO2(g)

----------------------------Description of solution----------------------------

                                       pH  =   2.949      Charge balance
                                       pe  =   4.000    
      Specific Conductance (µS/cm,  25°C)  = 345
                          Density (g/cm³)  =   1.02459
                               Volume (L)  =   1.11713
                        Viscosity (mPa s)  =   1.11369
                        Activity of water  =   0.947
                 Ionic strength (mol/kgw)  =   1.165e-03
                       Mass of water (kg)  =   1.000e+00
                 Total alkalinity (eq/kg)  =   4.602e-14
                       Total CO2 (mol/kg)  =   3.285e+00
                         Temperature (°C)  =  25.00
                  Electrical balance (eq)  =  -4.602e-14
 Percent error, 100*(Cat-|An|)/(Cat+|An|)  =  -0.00
                               Iterations  =   7
                                  Total H  = 1.110148e+02
                                  Total O  = 6.207759e+01

----------------------------Distribution of species----------------------------

                                               Log       Log       Log    mole V
   Species          Molality    Activity  Molality  Activity     Gamma   cm³/mol

   H+              1.165e-03   1.123e-03    -2.934    -2.949    -0.016      0.00
   OH-             8.864e-12   8.529e-12   -11.052   -11.069    -0.017     -4.10
   H2O             5.551e+01   9.466e-01     1.744    -0.024     0.000     18.07
C(-4)         2.080e-31
   CH4             2.080e-31   2.081e-31   -30.682   -30.682     0.000     35.46
C(4)          3.285e+00
   CO2             2.993e+00   2.993e+00     0.476     0.476     0.000     34.79
   (CO2)2          1.456e-01   1.457e-01    -0.837    -0.837     0.000     68.75
   HCO3-           1.165e-03   1.122e-03    -2.934    -2.950    -0.016     24.56
   CO3-2           5.448e-11   4.683e-11   -10.264   -10.329    -0.066     -4.66
H(0)          1.786e-17
   H2              8.931e-18   8.934e-18   -17.049   -17.049     0.000     14.99
O(0)          0.000e+00
   O2              0.000e+00   0.000e+00   -58.312   -58.312     0.000     30.40

------------------------------Saturation indices-------------------------------

  Phase               SI** log IAP   log K(298 K,   1 atm)

  CH4(g)          -27.88    -30.68   -2.80  CH4
  CO2(g)            1.94      0.48   -1.47  CO2	 Pressure 441.1 atm, phi 0.199
  H2(g)           -13.95    -17.05   -3.10  H2
  H2O(g)           -1.53     -0.02    1.50  H2O
  O2(g)           -55.42    -58.31   -2.89  O2

**For a gas, SI = log10(fugacity). Fugacity = pressure * phi / 1 atm.
  For ideal gases, phi = 1.

------------------
End of simulation.
------------------

-------------------------------------
Reading input data for simulation 25.
-------------------------------------

		SOLUTION 1
	 temp 25
	C 1 CO2(g)   2.6638e+00
	  pH 2 charge
	END
-------------------------------------------
Beginning of initial solution calculations.
-------------------------------------------

Initial solution 1.	

-----------------------------Solution composition------------------------------

	Elements           Molality       Moles

	C                 3.407e+00   3.407e+00  Equilibrium with CO2(g)

----------------------------Description of solution----------------------------

                                       pH  =   2.943      Charge balance
                                       pe  =   4.000    
[...]
------------------

-------------------------------------
Reading input data for simulation 75.
-------------------------------------

		SOLUTION 1
	 temp 75
	C 1 CO2(g)   2.5810e+00
	  pH 2 charge
	END
-------------------------------------------
Beginning of initial solution calculations.
-------------------------------------------

Initial solution 1.	

-----------------------------Solution composition------------------------------

	Elements           Molality       Moles

	C                 2.606e+00   2.606e+00  Equilibrium with CO2(g)

----------------------------Description of solution----------------------------

                                       pH  =   3.019      Charge balance
                                       pe  =   4.000    
      Specific Conductance (µS/cm,  75°C)  = 513
                          Density (g/cm³)  =   0.99272
                               Volume (L)  =   1.12290
                        Viscosity (mPa s)  =   0.40004
                        Activity of water  =   0.961
                 Ionic strength (mol/kgw)  =   9.946e-04
                       Mass of water (kg)  =   1.000e+00
                 Total alkalinity (eq/kg)  =   1.237e-14
                       Total CO2 (mol/kg)  =   2.606e+00
                         Temperature (°C)  =  75.00
                  Electrical balance (eq)  =  -1.237e-14
 Percent error, 100*(Cat-|An|)/(Cat+|An|)  =  -0.00
                               Iterations  =   7
                                  Total H  = 1.110144e+02
                                  Total O  = 6.071979e+01

----------------------------Distribution of species----------------------------

                                               Log       Log       Log    mole V
   Species          Molality    Activity  Molality  Activity     Gamma   cm³/mol

   H+              9.946e-04   9.580e-04    -3.002    -3.019    -0.016      0.00
   OH-             2.141e-10   2.058e-10    -9.669    -9.686    -0.017     -4.44
   H2O             5.551e+01   9.608e-01     1.744    -0.017     0.000     18.48
C(-4)         2.430e-38
   CH4             2.430e-38   2.430e-38   -37.614   -37.614     0.000     39.08
C(4)          2.606e+00
   CO2             2.002e+00   2.002e+00     0.301     0.302     0.000     37.35
   (CO2)2          3.016e-01   3.016e-01    -0.521    -0.521     0.000     73.87
   HCO3-           9.946e-04   9.568e-04    -3.002    -3.019    -0.017     25.38
   CO3-2           8.740e-11   7.485e-11   -10.058   -10.126    -0.067     -5.08
H(0)          8.483e-18
   H2              4.241e-18   4.242e-18   -17.372   -17.372     0.000     17.43
O(0)          0.000e+00
   O2              0.000e+00   0.000e+00   -43.824   -43.824     0.000     32.99

------------------------------Saturation indices-------------------------------

  Phase               SI** log IAP   log K(348 K,   1 atm)

  CH4(g)          -34.60    -37.61   -3.01  CH4
  CO2(g)            2.18      0.30   -1.87  CO2	 Pressure 381.1 atm, phi 0.393
  H2(g)           -14.25    -17.37   -3.12  H2
  H2O(g)           -0.44     -0.02    0.42  H2O
  O2(g)           -40.73    -43.82   -3.10  O2

**For a gas, SI = log10(fugacity). Fugacity = pressure * phi / 1 atm.
  For ideal gases, phi = 1.

------------------
End of simulation.
------------------

-------------------------------------
Reading input data for simulation 76.
-------------------------------------

		SOLUTION 1
	 temp 75
	C 1 CO2(g)   2.6033e+00
	  pH 2 charge
	END
-------------------------------------------
Beginning of initial solution calculations.
-------------------------------------------

Initial solution 1.	

-----------------------------Solution composition------------------------------

	Elements           Molality       Moles

	C                 2.726e+00   2.726e+00  Equilibrium with CO2(g)

----------------------------Description of solution----------------------------

                                       pH  =   3.011      Charge balance
                                       pe  =   4.000    
      Specific Conductance (µS/cm,  75°C)  = 518
                          Density (g/cm³)  =   0.99347
                               Volume (L)  =   1.12735
                        Viscosity (mPa s)  =   0.40105
                        Activity of water  =   0.959
                 Ionic strength (mol/kgw)  =   1.012e-03
                       Mass of water (kg)  =   1.000e+00
                 Total alkalinity (eq/kg)  =   1.545e-14
                       Total CO2 (mol/kg)  =   2.726e+00
                         Temperature (°C)  =  75.00
                  Electrical balance (eq)  =  -1.545e-14
 Percent error, 100*(Cat-|An|)/(Cat+|An|)  =  -0.00
                               Iterations  =   7
                                  Total H  = 1.110145e+02
                                  Total O  = 6.095909e+01

----------------------------Distribution of species----------------------------

                                               Log       Log       Log    mole V
   Species          Molality    Activity  Molality  Activity     Gamma   cm³/mol

   H+              1.012e-03   9.748e-04    -2.995    -3.011    -0.016      0.00
   OH-             2.102e-10   2.020e-10    -9.677    -9.695    -0.017     -4.44
   H2O             5.551e+01   9.592e-01     1.744    -0.018     0.000     18.48
C(-4)         2.904e-38
   CH4             2.904e-38   2.905e-38   -37.537   -37.537     0.000     39.08
C(4)          2.726e+00
   CO2             2.076e+00   2.077e+00     0.317     0.317     0.000     37.35
   (CO2)2          3.243e-01   3.244e-01    -0.489    -0.489     0.000     73.87
   HCO3-           1.012e-03   9.735e-04    -2.995    -3.012    -0.017     25.38
   CO3-2           8.751e-11   7.484e-11   -10.058   -10.126    -0.068     -5.08
H(0)          8.782e-18
   H2              4.391e-18   4.392e-18   -17.357   -17.357     0.000     17.43
O(0)          0.000e+00
   O2              0.000e+00   0.000e+00   -43.856   -43.856     0.000     32.99

------------------------------Saturation indices-------------------------------

  Phase               SI** log IAP   log K(348 K,   1 atm)

  CH4(g)          -34.52    -37.54   -3.01  CH4
  CO2(g)            2.19      0.32   -1.87  CO2	 Pressure 401.1 atm, phi 0.387
  H2(g)           -14.24    -17.36   -3.12  H2
  H2O(g)           -0.44     -0.02    0.42  H2O
  O2(g)           -40.76    -43.86   -3.10  O2

**For a gas, SI = log10(fugacity). Fugacity = pressure * phi / 1 atm.
  For ideal gases, phi = 1.

------------------
End of simulation.
------------------

-------------------------------------
Reading input data for simulation 77.
-------------------------------------

		SOLUTION 1
	 temp 75
	C 1 CO2(g)   2.6244e+00
	  pH 2 charge
	END
-------------------------------------------
Beginning of initial solution calculations.
-------------------------------------------

Initial solution 1.	

-----------------------------Solution composition------------------------------

	Elements           Molality       Moles

	C                 2.849e+00   2.849e+00  Equilibrium with CO2(g)

----------------------------Description of solution----------------------------

                                       pH  =   3.004      Charge balance
                                       pe  =   4.000    
      Specific Conductance (µS/cm,  75°C)  = 522
                          Density (g/cm³)  =   0.99424
                               Volume (L)  =   1.13191
                        Viscosity (mPa s)  =   0.40208
                        Activity of water  =   0.957
                 Ionic strength (mol/kgw)  =   1.030e-03
                       Mass of water (kg)  =   1.000e+00
                 Total alkalinity (eq/kg)  =   1.942e-14
                       Total CO2 (mol/kg)  =   2.849e+00
                         Temperature (°C)  =  75.00
                  Electrical balance (eq)  =  -1.942e-14
 Percent error, 100*(Cat-|An|)/(Cat+|An|)  =  -0.00
                               Iterations  =   7
                                  Total H  = 1.110145e+02
                                  Total O  = 6.120480e+01

----------------------------Distribution of species----------------------------

                                               Log       Log       Log    mole V
   Species          Molality    Activity  Molality  Activity     Gamma   cm³/mol

   H+              1.030e-03   9.914e-04    -2.987    -3.004    -0.017      0.00
   OH-             2.063e-10   1.982e-10    -9.685    -9.703    -0.017     -4.43
   H2O             5.551e+01   9.575e-01     1.744    -0.019     0.000     18.48
C(-4)         3.457e-38
   CH4             3.457e-38   3.458e-38   -37.461   -37.461     0.000     39.08
C(4)          2.849e+00
   CO2             2.151e+00   2.152e+00     0.333     0.333     0.000     37.35
   (CO2)2          3.482e-01   3.483e-01    -0.458    -0.458     0.000     73.87
   HCO3-           1.030e-03   9.900e-04    -2.987    -3.004    -0.017     25.38
   CO3-2           8.762e-11   7.484e-11   -10.057   -10.126    -0.068     -5.08
H(0)          9.084e-18
   H2              4.542e-18   4.543e-18   -17.343   -17.343     0.000     17.43
O(0)          0.000e+00
   O2              0.000e+00   0.000e+00   -43.887   -43.887     0.000     32.99

------------------------------Saturation indices-------------------------------

  Phase               SI** log IAP   log K(348 K,   1 atm)

  CH4(g)          -34.45    -37.46   -3.01  CH4
  CO2(g)            2.21      0.33   -1.87  CO2	 Pressure 421.1 atm, phi 0.382
  H2(g)           -14.22    -17.34   -3.12  H2
  H2O(g)           -0.44     -0.02    0.42  H2O
  O2(g)           -40.79    -43.89   -3.10  O2

**For a gas, SI = log10(fugacity). Fugacity = pressure * phi / 1 atm.
  For ideal gases, phi = 1.

------------------
End of simulation.
------------------

-------------------------------------
Reading input data for simulation 78.
-------------------------------------

		SOLUTION 1
	 temp 75
	C 1 CO2(g)   2.6445e+00
	  pH 2 charge
	END
-------------------------------------------
Beginning of initial solution calculations.
-------------------------------------------

Initial solution 1.	

-----------------------------Solution composition------------------------------

	Elements           Molality       Moles

	C                 2.976e+00   2.976e+00  Equilibrium with CO2(g)

----------------------------Description of solution----------------------------

                                       pH  =   2.997      Charge balance
                                       pe  =   4.000    
      Specific Conductance (µS/cm,  75°C)  = 526
                          Density (g/cm³)  =   0.99503
                               Volume (L)  =   1.13663
                        Viscosity (mPa s)  =   0.40315
                        Activity of water  =   0.956
                 Ionic strength (mol/kgw)  =   1.047e-03
                       Mass of water (kg)  =   1.000e+00
                 Total alkalinity (eq/kg)  =   2.462e-14
                       Total CO2 (mol/kg)  =   2.976e+00
                         Temperature (°C)  =  75.00
                  Electrical balance (eq)  =  -2.462e-14
 Percent error, 100*(Cat-|An|)/(Cat+|An|)  =  -0.00
                               Iterations  =   7
                                  Total H  = 1.110145e+02
                                  Total O  = 6.145834e+01

----------------------------Distribution of species----------------------------

                                               Log       Log       Log    mole V
   Species          Molality    Activity  Molality  Activity     Gamma   cm³/mol

   H+              1.047e-03   1.008e-03    -2.980    -2.997    -0.017      0.00
   OH-             2.027e-10   1.946e-10    -9.693    -9.711    -0.018     -4.43
   H2O             5.551e+01   9.557e-01     1.744    -0.020     0.000     18.48
C(-4)         4.102e-38
   CH4             4.102e-38   4.103e-38   -37.387   -37.387     0.000     39.08
C(4)          2.976e+00
   CO2             2.228e+00   2.228e+00     0.348     0.348     0.000     37.35
   (CO2)2          3.734e-01   3.735e-01    -0.428    -0.428     0.000     73.87
   HCO3-           1.047e-03   1.007e-03    -2.980    -2.997    -0.017     25.39
   CO3-2           8.773e-11   7.484e-11   -10.057   -10.126    -0.069     -5.07
H(0)          9.389e-18
   H2              4.695e-18   4.696e-18   -17.328   -17.328     0.000     17.43
O(0)          0.000e+00
   O2              0.000e+00   0.000e+00   -43.917   -43.917     0.000     32.99

------------------------------Saturation indices-------------------------------

  Phase               SI** log IAP   log K(348 K,   1 atm)

  CH4(g)          -34.37    -37.39   -3.01  CH4
  CO2(g)            2.22      0.35   -1.87  CO2	 Pressure 441.1 atm, phi 0.378
  H2(g)           -14.21    -17.33   -3.12  H2
  H2O(g)           -0.44     -0.02    0.42  H2O
  O2(g)           -40.82    -43.92   -3.10  O2

**For a gas, SI = log10(fugacity). Fugacity = pressure * phi / 1 atm.
  For ideal gases, phi = 1.

------------------
End of simulation.
------------------

-------------------------------------
Reading input data for simulation 79.
-------------------------------------

		SOLUTION 1
	 temp 75
	C 1 CO2(g)   2.6638e+00
	  pH 2 charge
	END
-------------------------------------------
Beginning of initial solution calculations.
-------------------------------------------

Initial solution 1.	

-----------------------------Solution composition------------------------------

	Elements           Molality       Moles

	C                 3.107e+00   3.107e+00  Equilibrium with CO2(g)

----------------------------Description of solution----------------------------

                                       pH  =   2.989      Charge balance
                                       pe  =   4.000    
      Specific Conductance (µS/cm,  75°C)  = 530
                          Density (g/cm³)  =   0.99584
                               Volume (L)  =   1.14152
                        Viscosity (mPa s)  =   0.40426
                        Activity of water  =   0.954
                 Ionic strength (mol/kgw)  =   1.065e-03
                       Mass of water (kg)  =   1.000e+00
                 Total alkalinity (eq/kg)  =   3.152e-14
                       Total CO2 (mol/kg)  =   3.107e+00
                         Temperature (°C)  =  75.00
                  Electrical balance (eq)  =  -3.152e-14
 Percent error, 100*(Cat-|An|)/(Cat+|An|)  =  -0.00
                               Iterations  =   7
                                  Total H  = 1.110146e+02
                                  Total O  = 6.172171e+01

----------------------------Distribution of species----------------------------

                                               Log       Log       Log    mole V
   Species          Molality    Activity  Molality  Activity     Gamma   cm³/mol

   H+              1.065e-03   1.025e-03    -2.973    -2.989    -0.017      0.00
   OH-             1.991e-10   1.911e-10    -9.701    -9.719    -0.018     -4.43
   H2O             5.551e+01   9.540e-01     1.744    -0.020     0.000     18.48
C(-4)         4.857e-38
   CH4             4.857e-38   4.858e-38   -37.314   -37.314     0.000     39.08
C(4)          3.107e+00
   CO2             2.306e+00   2.306e+00     0.363     0.363     0.000     37.35
   (CO2)2          4.001e-01   4.002e-01    -0.398    -0.398     0.000     73.87
   HCO3-           1.065e-03   1.023e-03    -2.973    -2.990    -0.017     25.39
   CO3-2           8.784e-11   7.484e-11   -10.056   -10.126    -0.070     -5.07
H(0)          9.701e-18
   H2              4.851e-18   4.852e-18   -17.314   -17.314     0.000     17.43
O(0)          0.000e+00
   O2              0.000e+00   0.000e+00   -43.947   -43.947     0.000     32.99

------------------------------Saturation indices-------------------------------

  Phase               SI** log IAP   log K(348 K,   1 atm)

  CH4(g)          -34.30    -37.31   -3.01  CH4
  CO2(g)            2.24      0.36   -1.87  CO2	 Pressure 461.1 atm, phi 0.374
  H2(g)           -14.19    -17.31   -3.12  H2
  H2O(g)           -0.44     -0.02    0.42  H2O
  O2(g)           -40.85    -43.95   -3.10  O2

**For a gas, SI = log10(fugacity). Fugacity = pressure * phi / 1 atm.
  For ideal gases, phi = 1.

------------------
End of simulation.
------------------

-------------------------------------
Reading input data for simulation 80.
-------------------------------------

		SOLUTION 1
	 temp 75
	C 1 CO2(g)   2.6822e+00
	  pH 2 charge
	END
-------------------------------------------
Beginning of initial solution calculations.
-------------------------------------------

Initial solution 1.	

-----------------------------Solution composition------------------------------

	Elements           Molality       Moles

	C                 3.243e+00   3.243e+00  Equilibrium with CO2(g)

----------------------------Description of solution----------------------------

                                       pH  =   2.983      Charge balance
                                       pe  =   4.000    
      Specific Conductance (µS/cm,  75°C)  = 533
                          Density (g/cm³)  =   0.99666
                               Volume (L)  =   1.14657
                        Viscosity (mPa s)  =   0.40540
                        Activity of water  =   0.952
                 Ionic strength (mol/kgw)  =   1.082e-03
                       Mass of water (kg)  =   1.000e+00
                 Total alkalinity (eq/kg)  =   4.064e-14
                       Total CO2 (mol/kg)  =   3.243e+00
                         Temperature (°C)  =  75.00
                  Electrical balance (eq)  =  -4.064e-14
 Percent error, 100*(Cat-|An|)/(Cat+|An|)  =  -0.00
                               Iterations  =   7
                                  Total H  = 1.110146e+02
                                  Total O  = 6.199302e+01

----------------------------Distribution of species----------------------------

                                               Log       Log       Log    mole V
   Species          Molality    Activity  Molality  Activity     Gamma   cm³/mol

   H+              1.082e-03   1.041e-03    -2.966    -2.983    -0.017      0.00
   OH-             1.956e-10   1.877e-10    -9.709    -9.727    -0.018     -4.43
   H2O             5.551e+01   9.521e-01     1.744    -0.021     0.000     18.48
C(-4)         5.732e-38
   CH4             5.732e-38   5.734e-38   -37.242   -37.242     0.000     39.08
C(4)          3.243e+00
   CO2             2.385e+00   2.386e+00     0.378     0.378     0.000     37.35
   (CO2)2          4.282e-01   4.282e-01    -0.368    -0.368     0.000     73.87
   HCO3-           1.082e-03   1.040e-03    -2.966    -2.983    -0.018     25.39
   CO3-2           8.794e-11   7.484e-11   -10.056   -10.126    -0.070     -5.07
H(0)          1.002e-17
   H2              5.008e-18   5.010e-18   -17.300   -17.300     0.000     17.43
O(0)          0.000e+00
   O2              0.000e+00   0.000e+00   -43.977   -43.977     0.000     32.99

------------------------------Saturation indices-------------------------------

  Phase               SI** log IAP   log K(348 K,   1 atm)

  CH4(g)          -34.23    -37.24   -3.01  CH4
  CO2(g)            2.25      0.38   -1.87  CO2	 Pressure 481.1 atm, phi 0.371
  H2(g)           -14.18    -17.30   -3.12  H2
  H2O(g)           -0.44     -0.02    0.42  H2O
  O2(g)           -40.88    -43.98   -3.10  O2

**For a gas, SI = log10(fugacity). Fugacity = pressure * phi / 1 atm.
  For ideal gases, phi = 1.

------------------
End of simulation.
------------------

-------------------------------------
Reading input data for simulation 81.
-------------------------------------

	END
------------------
End of simulation.
------------------

-------------------------------------
Reading input data for simulation 82.
-------------------------------------

