WARNING: Database file from DATABASE keyword is used; command line argument ignored.
   Input file: phi_CO2-CH4_GP
  Output file: phi_CO2-CH4_GP.out
Database file: ../database/Amm.dat

------------------
Reading data base.
------------------

	SOLUTION_MASTER_SPECIES
	SOLUTION_SPECIES
	PHASES
	GAS_BINARY_PARAMETERS
	EXCHANGE_MASTER_SPECIES
	EXCHANGE_SPECIES
	SURFACE_MASTER_SPECIES
	SURFACE_SPECIES
	MEAN_GAMMAS
	RATES
	END
------------------------------------
Reading input data for simulation 1.
------------------------------------

	DATABASE ../database/Amm.dat
	SELECTED_OUTPUT 101
	    file                 phi_CO2-CH4_GP_101.sel
	USER_PUNCH 101
	    headings Mu SC
	    start
	10 PUNCH STR_F$(MU, 20, 12)
	20 PUNCH STR_F$(SC, 20, 10)
	    end
	SOLUTION 1 pH 7 charge
	GAS_PHASE 6
	    fixed_volume
	    CO2(g) 1
		Mtg(g) 400
	USER_PRINT
	 10 print tc, PR_P("Mtg(g)"), PR_PHI("Mtg(g)")
	USER_GRAPH
	  -headings 25.oC P_total
	 -axis_titles "CO2 pressure / atm" "CO2 fugacity coefficient (-)" "Total pressure / atm"
	 -axis_scale x_axis 0 500
	 -axis_scale y_axis 0 1.2
	 -init false
	 10 x = PR_P("CO2(g)")
	 20 plot_xy x, PR_Phi("CO2(g)"), symbol = None, line_w 2 color = Red
	 30 if step_no > 0 then plot_xy x, gas_p, symbol = Circle, line_w 1, y_axis = 2 color = Red 
	 -end
	REACTION
	 CO2 1
	 0.01 5*0.1 11*1
	INCREMENTAL_REACTIONS true
	END
-------------------------------------------
Beginning of initial solution calculations.
-------------------------------------------

Initial solution 1.	pH 7 charge

----------------------------------User print-----------------------------------

          25            0            1 

-----------------------------Solution composition------------------------------

	Elements           Molality       Moles

	Pure water     

----------------------------Description of solution----------------------------

                                       pH  =   7.000    
                                       pe  =   4.000    
      Specific Conductance (µS/cm,  25°C)  = 0
                          Density (g/cm³)  =   0.99704
                               Volume (L)  =   1.00297
                        Viscosity (mPa s)  =   0.89002
                        Activity of water  =   1.000
                 Ionic strength (mol/kgw)  =   1.007e-07
                       Mass of water (kg)  =   1.000e+00
                 Total alkalinity (eq/kg)  =   1.217e-09
                         Temperature (°C)  =  25.00
                  Electrical balance (eq)  =  -1.217e-09
 Percent error, 100*(Cat-|An|)/(Cat+|An|)  =  -0.60
                               Iterations  =   0
                                  Total H  = 1.110124e+02
                                  Total O  = 5.550622e+01

----------------------------Distribution of species----------------------------

                                               Log       Log       Log    mole V
   Species          Molality    Activity  Molality  Activity     Gamma   cm³/mol

   OH-             1.013e-07   1.012e-07    -6.995    -6.995    -0.000     -4.14
   H+              1.001e-07   1.000e-07    -7.000    -7.000    -0.000      0.00
   H2O             5.551e+01   1.000e+00     1.744     0.000     0.000     18.07
H(0)          1.416e-25
   H2              7.079e-26   7.079e-26   -25.150   -25.150     0.000     14.99
O(0)          0.000e+00
   O2              0.000e+00   0.000e+00   -42.063   -42.063     0.000     30.40

------------------------------Saturation indices-------------------------------

  Phase               SI** log IAP   log K(298 K,   1 atm)

  H2(g)           -22.05    -25.15   -3.10  H2
  H2O(g)           -1.50      0.00    1.50  H2O
  O2(g)           -39.17    -42.06   -2.89  O2

**For a gas, SI = log10(fugacity). Fugacity = pressure * phi / 1 atm.
  For ideal gases, phi = 1.

-----------------------------------------
Beginning of batch-reaction calculations.
-----------------------------------------

Reaction step 1.

WARNING: Numerical method failed, switching to numerical derivatives.
WARNING: Maximum iterations exceeded, 100

WARNING: Numerical method failed with this set of convergence parameters.

WARNING: Trying smaller step size, pe step size 10, 5 ... 

Using solution 1.	pH 7 charge
Using gas phase 6.	
Using reaction 1.	

Reaction 1.	

	  1.000e-02 moles of the following reaction have been added:

	                 Relative
	Reactant            moles

	CO2                  1.00000

	                 Relative
	Element             moles
	C                    1.00000
	O                    2.00000

----------------------------------User print-----------------------------------

          25   3.8986e+02   6.5588e-01 

-----------------------------------Gas phase-----------------------------------

Total pressure: 390.94      atmospheres          (Peng-Robinson calculation)
    Gas volume:   1.00e+00 liters
  Molar volume:   6.13e-02 liters/mole
   P * Vm / RT:  0.97941  (Compressibility Factor Z) 

                                                        Moles in gas
                                            ----------------------------------
Component         log P           P    phi     Initial       Final       Delta

CO2(g)             0.03   1.079e+00  0.291   4.124e-02   4.501e-02   3.769e-03
Mtg(g)             2.59   3.899e+02  0.656   1.650e+01   1.627e+01  -2.277e-01

-----------------------------Solution composition------------------------------

	Elements           Molality       Moles

	C                 6.231e-03   6.231e-03
	Mtg               2.277e-01   2.277e-01

----------------------------Description of solution----------------------------

                                       pH  =   4.190      Charge balance
                                       pe  =  13.808      Adjusted to redox equilibrium
      Specific Conductance (µS/cm,  25°C)  = 25
                          Density (g/cm³)  =   1.00955
                               Volume (L)  =   0.99443
                        Viscosity (mPa s)  =   0.88758
                        Activity of water  =   0.996
                 Ionic strength (mol/kgw)  =   6.518e-05
                       Mass of water (kg)  =   1.000e+00
                 Total alkalinity (eq/kg)  =   1.217e-09
                       Total CO2 (mol/kg)  =   6.231e-03
                         Temperature (°C)  =  25.00
                           Pressure (atm)  = 390.94
                  Electrical balance (eq)  =  -1.217e-09
 Percent error, 100*(Cat-|An|)/(Cat+|An|)  =  -0.00
                               Iterations  =  92 (193 overall)
                                  Total H  = 1.110124e+02
                                  Total O  = 5.551868e+01

----------------------------Distribution of species----------------------------

                                               Log       Log       Log    mole V
   Species          Molality    Activity  Molality  Activity     Gamma   cm³/mol

   H+              6.518e-05   6.459e-05    -4.186    -4.190    -0.004      0.00
   OH-             2.187e-10   2.167e-10    -9.660    -9.664    -0.004     -2.83
   H2O             5.551e+01   9.960e-01     1.744    -0.002     0.000     17.76
C(-4)         0.000e+00
   CH4             0.000e+00   0.000e+00  -122.055  -122.055     0.000     35.91
C(4)          6.231e-03
   CO2             6.164e-03   6.164e-03    -2.210    -2.210     0.000     34.40
   HCO3-           6.518e-05   6.459e-05    -4.186    -4.190    -0.004     25.59
   (CO2)2          6.261e-07   6.261e-07    -6.203    -6.203     0.000     67.97
   CO3-2           7.502e-11   7.231e-11   -10.125   -10.141    -0.016     -1.59
H(0)          1.122e-39
   H2              5.610e-40   5.610e-40   -39.251   -39.251     0.000     15.23
Mtg           2.277e-01
   Mtg             2.277e-01   2.277e-01    -0.643    -0.643     0.000     35.91
O(0)          1.843e-14
   O2              9.213e-15   9.213e-15   -14.036   -14.036     0.000     29.89

------------------------------Saturation indices-------------------------------

  Phase               SI** log IAP   log K(298 K, 391 atm)

  CH4(g)         -119.00   -122.06   -3.05  CH4
  CO2(g)           -0.50     -2.21   -1.71  CO2	 Pressure   1.1 atm, phi 0.291
  H2(g)           -36.05    -39.25   -3.20  H2
  H2O(g)           -1.38     -0.00    1.38  H2O
  Mtg(g)            2.41     -0.64   -3.05  Mtg	 Pressure 389.9 atm, phi 0.656
  O2(g)           -10.94    -14.04   -3.10  O2

**For a gas, SI = log10(fugacity). Fugacity = pressure * phi / 1 atm.
  For ideal gases, phi = 1.

Reaction step 2.

Using solution 1.	pH 7 charge
Using gas phase 6.	
Using reaction 1.	

Reaction 1.	

	  1.000e-01 moles of the following reaction have been added:

	                 Relative
	Reactant            moles

	CO2                  1.00000

	                 Relative
	Element             moles
	C                    1.00000
	O                    2.00000

----------------------------------User print-----------------------------------

          25   3.9026e+02   6.5581e-01 

-----------------------------------Gas phase-----------------------------------

Total pressure: 393.45      atmospheres          (Peng-Robinson calculation)
    Gas volume:   1.00e+00 liters
  Molar volume:   6.10e-02 liters/mole
   P * Vm / RT:  0.98036  (Compressibility Factor Z) 

                                                        Moles in gas
                                            ----------------------------------
Component         log P           P    phi     Initial       Final       Delta

CO2(g)             0.50   3.191e+00  0.289   4.501e-02   1.330e-01   8.803e-02
Mtg(g)             2.59   3.903e+02  0.656   1.627e+01   1.627e+01   6.408e-04

-----------------------------Solution composition------------------------------

	Elements           Molality       Moles

	C                 1.820e-02   1.820e-02
	Mtg               2.270e-01   2.270e-01

----------------------------Description of solution----------------------------

                                       pH  =   3.956      Charge balance
                                       pe  =  14.102      Adjusted to redox equilibrium
      Specific Conductance (µS/cm,  25°C)  = 44
                          Density (g/cm³)  =   1.00978
                               Volume (L)  =   0.99472
                        Viscosity (mPa s)  =   0.88841
                        Activity of water  =   0.996
                 Ionic strength (mol/kgw)  =   1.121e-04
                       Mass of water (kg)  =   1.000e+00
                 Total alkalinity (eq/kg)  =   1.217e-09
                       Total CO2 (mol/kg)  =   1.820e-02
                         Temperature (°C)  =  25.00
                           Pressure (atm)  = 393.45
                  Electrical balance (eq)  =  -1.217e-09
 Percent error, 100*(Cat-|An|)/(Cat+|An|)  =  -0.00
                               Iterations  =  77
                                  Total H  = 1.110124e+02
                                  Total O  = 5.554261e+01

----------------------------Distribution of species----------------------------

                                               Log       Log       Log    mole V
   Species          Molality    Activity  Molality  Activity     Gamma   cm³/mol

   H+              1.121e-04   1.107e-04    -3.951    -3.956    -0.005      0.00
   OH-             1.282e-10   1.266e-10    -9.892    -9.897    -0.005     -2.82
   H2O             5.551e+01   9.958e-01     1.744    -0.002     0.000     17.76
C(-4)         0.000e+00
   CH4             0.000e+00   0.000e+00  -122.067  -122.067     0.000     35.92
C(4)          1.820e-02
   CO2             1.808e-02   1.808e-02    -1.743    -1.743     0.000     34.40
   HCO3-           1.121e-04   1.107e-04    -3.951    -3.956    -0.005     25.59
   (CO2)2          5.384e-06   5.384e-06    -5.269    -5.269     0.000     67.96
   CO3-2           7.605e-11   7.249e-11   -10.119   -10.140    -0.021     -1.56
H(0)          8.511e-40
   H2              4.256e-40   4.256e-40   -39.371   -39.371     0.000     15.23
Mtg           2.270e-01
   Mtg             2.270e-01   2.270e-01    -0.644    -0.644     0.000     35.92
O(0)          3.192e-14
   O2              1.596e-14   1.596e-14   -13.797   -13.797     0.000     29.88

------------------------------Saturation indices-------------------------------

  Phase               SI** log IAP   log K(298 K, 393 atm)

  CH4(g)         -119.01   -122.07   -3.05  CH4
  CO2(g)           -0.04     -1.74   -1.71  CO2	 Pressure   3.2 atm, phi 0.289
  H2(g)           -36.17    -39.37   -3.21  H2
  H2O(g)           -1.38     -0.00    1.38  H2O
  Mtg(g)            2.41     -0.64   -3.05  Mtg	 Pressure 390.3 atm, phi 0.656
  O2(g)           -10.70    -13.80   -3.10  O2

**For a gas, SI = log10(fugacity). Fugacity = pressure * phi / 1 atm.
  For ideal gases, phi = 1.

Reaction step 3.

Using solution 1.	pH 7 charge
Using gas phase 6.	
Using reaction 1.	

Reaction 1.	

	  1.000e-01 moles of the following reaction have been added:

	                 Relative
	Reactant            moles

	CO2                  1.00000

	                 Relative
	Element             moles
	C                    1.00000
	O                    2.00000

----------------------------------User print-----------------------------------

          25   3.9068e+02   6.5577e-01 

-----------------------------------Gas phase-----------------------------------

Total pressure: 395.99      atmospheres          (Peng-Robinson calculation)
    Gas volume:   1.00e+00 liters
  Molar volume:   6.06e-02 liters/mole
   P * Vm / RT:  0.98139  (Compressibility Factor Z) 

                                                        Moles in gas
                                            ----------------------------------
Component         log P           P    phi     Initial       Final       Delta

CO2(g)             0.73   5.312e+00  0.287   1.330e-01   2.212e-01   8.820e-02
Mtg(g)             2.59   3.907e+02  0.656   1.627e+01   1.627e+01   6.271e-04

-----------------------------Solution composition------------------------------

	Elements           Molality       Moles

	C                 3.000e-02   3.000e-02
	Mtg               2.264e-01   2.264e-01

----------------------------Description of solution----------------------------

                                       pH  =   3.846      Charge balance
                                       pe  =  14.215      Adjusted to redox equilibrium
      Specific Conductance (µS/cm,  25°C)  = 57
                          Density (g/cm³)  =   1.01001
                               Volume (L)  =   0.99499
                        Viscosity (mPa s)  =   0.88922
                        Activity of water  =   0.996
                 Ionic strength (mol/kgw)  =   1.443e-04
                       Mass of water (kg)  =   1.000e+00
                 Total alkalinity (eq/kg)  =   1.217e-09
                       Total CO2 (mol/kg)  =   3.000e-02
                         Temperature (°C)  =  25.00
                           Pressure (atm)  = 395.99
                  Electrical balance (eq)  =  -1.217e-09
 Percent error, 100*(Cat-|An|)/(Cat+|An|)  =  -0.00
                               Iterations  =  74
                                  Total H  = 1.110124e+02
                                  Total O  = 5.556621e+01

----------------------------Distribution of species----------------------------

                                               Log       Log       Log    mole V
   Species          Molality    Activity  Molality  Activity     Gamma   cm³/mol

   H+              1.443e-04   1.424e-04    -3.841    -3.846    -0.006      0.00
   OH-             1.000e-10   9.864e-11   -10.000   -10.006    -0.006     -2.81
   H2O             5.551e+01   9.956e-01     1.744    -0.002     0.000     17.76
C(-4)         0.000e+00
   CH4             0.000e+00   0.000e+00  -121.881  -121.881     0.000     35.92
C(4)          3.000e-02
   CO2             2.982e-02   2.982e-02    -1.525    -1.525     0.000     34.40
   HCO3-           1.443e-04   1.424e-04    -3.841    -3.847    -0.006     25.60
   (CO2)2          1.466e-05   1.466e-05    -4.834    -4.834     0.000     67.96
   CO3-2           7.672e-11   7.267e-11   -10.115   -10.139    -0.024     -1.54
H(0)          8.349e-40
   H2              4.175e-40   4.175e-40   -39.379   -39.379     0.000     15.23
Mtg           2.264e-01
   Mtg             2.264e-01   2.264e-01    -0.645    -0.645     0.000     35.92
O(0)          3.307e-14
   O2              1.653e-14   1.653e-14   -13.782   -13.782     0.000     29.88

------------------------------Saturation indices-------------------------------

  Phase               SI** log IAP   log K(298 K, 396 atm)

  CH4(g)         -118.83   -121.88   -3.05  CH4
  CO2(g)            0.18     -1.53   -1.71  CO2	 Pressure   5.3 atm, phi 0.287
  H2(g)           -36.17    -39.38   -3.21  H2
  H2O(g)           -1.38     -0.00    1.38  H2O
  Mtg(g)            2.41     -0.65   -3.05  Mtg	 Pressure 390.7 atm, phi 0.656
  O2(g)           -10.68    -13.78   -3.10  O2

**For a gas, SI = log10(fugacity). Fugacity = pressure * phi / 1 atm.
  For ideal gases, phi = 1.

Reaction step 4.

Using solution 1.	pH 7 charge
Using gas phase 6.	
Using reaction 1.	

Reaction 1.	

	  1.000e-01 moles of the following reaction have been added:

	                 Relative
	Reactant            moles

	CO2                  1.00000

	                 Relative
	Element             moles
	C                    1.00000
	O                    2.00000

----------------------------------User print-----------------------------------

          25   3.9113e+02   6.5575e-01 

-----------------------------------Gas phase-----------------------------------

Total pressure: 398.58      atmospheres          (Peng-Robinson calculation)
    Gas volume:   1.00e+00 liters
  Molar volume:   6.03e-02 liters/mole
   P * Vm / RT:  0.98248  (Compressibility Factor Z) 

                                                        Moles in gas
                                            ----------------------------------
Component         log P           P    phi     Initial       Final       Delta

CO2(g)             0.87   7.442e+00  0.286   2.212e-01   3.096e-01   8.836e-02
Mtg(g)             2.59   3.911e+02  0.656   1.627e+01   1.627e+01   6.134e-04

-----------------------------Solution composition------------------------------

	Elements           Molality       Moles

	C                 4.164e-02   4.164e-02
	Mtg               2.258e-01   2.258e-01

----------------------------Description of solution----------------------------

                                       pH  =   3.775      Charge balance
                                       pe  =  14.309      Adjusted to redox equilibrium
      Specific Conductance (µS/cm,  25°C)  = 67
                          Density (g/cm³)  =   1.01024
                               Volume (L)  =   0.99527
                        Viscosity (mPa s)  =   0.89003
                        Activity of water  =   0.995
                 Ionic strength (mol/kgw)  =   1.705e-04
                       Mass of water (kg)  =   1.000e+00
                 Total alkalinity (eq/kg)  =   1.218e-09
                       Total CO2 (mol/kg)  =   4.164e-02
                         Temperature (°C)  =  25.00
                           Pressure (atm)  = 398.58
                  Electrical balance (eq)  =  -1.218e-09
 Percent error, 100*(Cat-|An|)/(Cat+|An|)  =  -0.00
                               Iterations  =  60
                                  Total H  = 1.110124e+02
                                  Total O  = 5.558949e+01

----------------------------Distribution of species----------------------------

                                               Log       Log       Log    mole V
   Species          Molality    Activity  Molality  Activity     Gamma   cm³/mol

   H+              1.705e-04   1.680e-04    -3.768    -3.775    -0.006      0.00
   OH-             8.501e-11   8.376e-11   -10.071   -10.077    -0.006     -2.80
   H2O             5.551e+01   9.955e-01     1.744    -0.002     0.000     17.76
C(-4)         0.000e+00
   CH4             0.000e+00   0.000e+00  -121.922  -121.922     0.000     35.92
C(4)          4.164e-02
   CO2             4.141e-02   4.141e-02    -1.383    -1.383     0.000     34.40
   HCO3-           1.705e-04   1.680e-04    -3.768    -3.775    -0.006     25.61
   (CO2)2          2.826e-05   2.826e-05    -4.549    -4.549     0.000     67.95
   CO3-2           7.727e-11   7.286e-11   -10.112   -10.138    -0.026     -1.52
H(0)          7.508e-40
   H2              3.754e-40   3.754e-40   -39.426   -39.426     0.000     15.23
Mtg           2.258e-01
   Mtg             2.258e-01   2.258e-01    -0.646    -0.646     0.000     35.92
O(0)          4.077e-14
   O2              2.039e-14   2.039e-14   -13.691   -13.691     0.000     29.88

------------------------------Saturation indices-------------------------------

  Phase               SI** log IAP   log K(298 K, 399 atm)

  CH4(g)         -118.87   -121.92   -3.06  CH4
  CO2(g)            0.33     -1.38   -1.71  CO2	 Pressure   7.4 atm, phi 0.286
  H2(g)           -36.22    -39.43   -3.21  H2
  H2O(g)           -1.38     -0.00    1.38  H2O
  Mtg(g)            2.41     -0.65   -3.06  Mtg	 Pressure 391.1 atm, phi 0.656
  O2(g)           -10.59    -13.69   -3.10  O2

**For a gas, SI = log10(fugacity). Fugacity = pressure * phi / 1 atm.
  For ideal gases, phi = 1.

Reaction step 5.

Using solution 1.	pH 7 charge
Using gas phase 6.	
Using reaction 1.	

Reaction 1.	

	  1.000e-01 moles of the following reaction have been added:

	                 Relative
	Reactant            moles

	CO2                  1.00000

	                 Relative
	Element             moles
	C                    1.00000
	O                    2.00000

----------------------------------User print-----------------------------------

          25   3.9161e+02   6.5575e-01 

-----------------------------------Gas phase-----------------------------------

Total pressure: 401.20      atmospheres          (Peng-Robinson calculation)
    Gas volume:   1.00e+00 liters
  Molar volume:   6.00e-02 liters/mole
   P * Vm / RT:  0.98366  (Compressibility Factor Z) 

                                                        Moles in gas
                                            ----------------------------------
Component         log P           P    phi     Initial       Final       Delta

CO2(g)             0.98   9.581e+00  0.284   3.096e-01   3.981e-01   8.852e-02
Mtg(g)             2.59   3.916e+02  0.656   1.627e+01   1.627e+01   6.005e-04

-----------------------------Solution composition------------------------------

	Elements           Molality       Moles

	C                 5.312e-02   5.312e-02
	Mtg               2.252e-01   2.252e-01

----------------------------Description of solution----------------------------

                                       pH  =   3.721      Charge balance
                                       pe  =  14.376      Adjusted to redox equilibrium
      Specific Conductance (µS/cm,  25°C)  = 76
                          Density (g/cm³)  =   1.01046
                               Volume (L)  =   0.99553
                        Viscosity (mPa s)  =   0.89082
                        Activity of water  =   0.995
                 Ionic strength (mol/kgw)  =   1.930e-04
                       Mass of water (kg)  =   1.000e+00
                 Total alkalinity (eq/kg)  =   1.217e-09
                       Total CO2 (mol/kg)  =   5.312e-02
                         Temperature (°C)  =  25.00
                           Pressure (atm)  = 401.20
                  Electrical balance (eq)  =  -1.217e-09
 Percent error, 100*(Cat-|An|)/(Cat+|An|)  =  -0.00
                               Iterations  =  87
                                  Total H  = 1.110124e+02
                                  Total O  = 5.561246e+01

----------------------------Distribution of species----------------------------

                                               Log       Log       Log    mole V
   Species          Molality    Activity  Molality  Activity     Gamma   cm³/mol

   H+              1.930e-04   1.900e-04    -3.715    -3.721    -0.007      0.00
   OH-             7.537e-11   7.420e-11   -10.123   -10.130    -0.007     -2.79
   H2O             5.551e+01   9.953e-01     1.744    -0.002     0.000     17.76
C(-4)         0.000e+00
   CH4             0.000e+00   0.000e+00  -121.925  -121.925     0.000     35.92
C(4)          5.312e-02
   CO2             5.283e-02   5.284e-02    -1.277    -1.277     0.000     34.39
   HCO3-           1.930e-04   1.900e-04    -3.715    -3.721    -0.007     25.62
   (CO2)2          4.601e-05   4.601e-05    -4.337    -4.337     0.000     67.95
   CO3-2           7.776e-11   7.305e-11   -10.109   -10.136    -0.027     -1.49
H(0)          7.049e-40
   H2              3.524e-40   3.524e-40   -39.453   -39.453     0.000     15.23
Mtg           2.252e-01
   Mtg             2.252e-01   2.252e-01    -0.647    -0.647     0.000     35.92
O(0)          4.611e-14
   O2              2.306e-14   2.306e-14   -13.637   -13.637     0.000     29.87

------------------------------Saturation indices-------------------------------

  Phase               SI** log IAP   log K(298 K, 401 atm)

  CH4(g)         -118.87   -121.92   -3.06  CH4
  CO2(g)            0.44     -1.28   -1.71  CO2	 Pressure   9.6 atm, phi 0.284
  H2(g)           -36.25    -39.45   -3.21  H2
  H2O(g)           -1.38     -0.00    1.38  H2O
  Mtg(g)            2.41     -0.65   -3.06  Mtg	 Pressure 391.6 atm, phi 0.656
  O2(g)           -10.53    -13.64   -3.10  O2

**For a gas, SI = log10(fugacity). Fugacity = pressure * phi / 1 atm.
  For ideal gases, phi = 1.

Reaction step 6.

WARNING: Numerical method failed, switching to numerical derivatives.
WARNING: Maximum iterations exceeded, 100

WARNING: Numerical method failed with this set of convergence parameters.

WARNING: Trying smaller step size, pe step size 10, 5 ... 

Using solution 1.	pH 7 charge
Using gas phase 6.	
Using reaction 1.	

Reaction 1.	

	  1.000e-01 moles of the following reaction have been added:

	                 Relative
	Reactant            moles

	CO2                  1.00000

	                 Relative
	Element             moles
	C                    1.00000
	O                    2.00000

----------------------------------User print-----------------------------------

          25   3.9212e+02   6.5578e-01 

-----------------------------------Gas phase-----------------------------------

Total pressure: 403.86      atmospheres          (Peng-Robinson calculation)
    Gas volume:   1.00e+00 liters
  Molar volume:   5.97e-02 liters/mole
   P * Vm / RT:  0.98490  (Compressibility Factor Z) 

                                                        Moles in gas
                                            ----------------------------------
Component         log P           P    phi     Initial       Final       Delta

CO2(g)             1.07   1.173e+01  0.283   3.981e-01   4.868e-01   8.867e-02
Mtg(g)             2.59   3.921e+02  0.656   1.627e+01   1.627e+01   5.873e-04

-----------------------------Solution composition------------------------------

	Elements           Molality       Moles

	C                 6.445e-02   6.445e-02
	Mtg               2.246e-01   2.246e-01

----------------------------Description of solution----------------------------

                                       pH  =   3.679      Charge balance
                                       pe  =  14.546      Adjusted to redox equilibrium
      Specific Conductance (µS/cm,  25°C)  = 84
                          Density (g/cm³)  =   1.01069
                               Volume (L)  =   0.99579
                        Viscosity (mPa s)  =   0.89160
                        Activity of water  =   0.995
                 Ionic strength (mol/kgw)  =   2.130e-04
                       Mass of water (kg)  =   1.000e+00
                 Total alkalinity (eq/kg)  =   1.217e-09
                       Total CO2 (mol/kg)  =   6.445e-02
                         Temperature (°C)  =  25.00
                           Pressure (atm)  = 403.86
                  Electrical balance (eq)  =  -1.217e-09
 Percent error, 100*(Cat-|An|)/(Cat+|An|)  =  -0.00
                               Iterations  =  42 (143 overall)
                                  Total H  = 1.110124e+02
                                  Total O  = 5.563512e+01

----------------------------Distribution of species----------------------------

                                               Log       Log       Log    mole V
   Species          Molality    Activity  Molality  Activity     Gamma   cm³/mol

   H+              2.130e-04   2.096e-04    -3.672    -3.679    -0.007      0.00
   OH-             6.852e-11   6.740e-11   -10.164   -10.171    -0.007     -2.79
   H2O             5.551e+01   9.951e-01     1.744    -0.002     0.000     17.75
C(-4)         0.000e+00
   CH4             0.000e+00   0.000e+00  -122.862  -122.862     0.000     35.93
C(4)          6.445e-02
   CO2             6.410e-02   6.411e-02    -1.193    -1.193     0.000     34.39
   HCO3-           2.130e-04   2.095e-04    -3.672    -3.679    -0.007     25.63
   (CO2)2          6.774e-05   6.774e-05    -4.169    -4.169     0.000     67.94
   CO3-2           7.821e-11   7.325e-11   -10.107   -10.135    -0.028     -1.47
H(0)          3.913e-40
   H2              1.957e-40   1.957e-40   -39.709   -39.708     0.000     15.23
Mtg           2.246e-01
   Mtg             2.246e-01   2.246e-01    -0.649    -0.649     0.000     35.93
O(0)          1.491e-13
   O2              7.457e-14   7.458e-14   -13.127   -13.127     0.000     29.87

------------------------------Saturation indices-------------------------------

  Phase               SI** log IAP   log K(298 K, 404 atm)

  CH4(g)         -119.80   -122.86   -3.06  CH4
  CO2(g)            0.52     -1.19   -1.71  CO2	 Pressure  11.7 atm, phi 0.283
  H2(g)           -36.50    -39.71   -3.21  H2
  H2O(g)           -1.38     -0.00    1.38  H2O
  Mtg(g)            2.41     -0.65   -3.06  Mtg	 Pressure 392.1 atm, phi 0.656
  O2(g)           -10.02    -13.13   -3.11  O2

**For a gas, SI = log10(fugacity). Fugacity = pressure * phi / 1 atm.
  For ideal gases, phi = 1.

Reaction step 7.

WARNING: Numerical method failed, switching to numerical derivatives.
WARNING: Maximum iterations exceeded, 100

WARNING: Numerical method failed with this set of convergence parameters.

WARNING: Trying smaller step size, pe step size 10, 5 ... 

Using solution 1.	pH 7 charge
Using gas phase 6.	
Using reaction 1.	

Reaction 1.	

	  1.000e+00 moles of the following reaction have been added:

	                 Relative
	Reactant            moles

	CO2                  1.00000

	                 Relative
	Element             moles
	C                    1.00000
	O                    2.00000

----------------------------------User print-----------------------------------

          25   3.9898e+02   6.5733e-01 

-----------------------------------Gas phase-----------------------------------

Total pressure: 432.83      atmospheres          (Peng-Robinson calculation)
    Gas volume:   1.00e+00 liters
  Molar volume:   5.66e-02 liters/mole
   P * Vm / RT:  1.00180  (Compressibility Factor Z) 

                                                        Moles in gas
                                            ----------------------------------
Component         log P           P    phi     Initial       Final       Delta

CO2(g)             1.53   3.385e+01  0.269   4.868e-01   1.381e+00   8.943e-01
Mtg(g)             2.60   3.990e+02  0.657   1.627e+01   1.628e+01   5.187e-03

-----------------------------Solution composition------------------------------

	Elements           Molality       Moles

	C                 1.702e-01   1.702e-01
	Mtg               2.194e-01   2.194e-01

----------------------------Description of solution----------------------------

                                       pH  =   3.462      Charge balance
                                       pe  =  15.096      Adjusted to redox equilibrium
      Specific Conductance (µS/cm,  25°C)  = 138
                          Density (g/cm³)  =   1.01298
                               Volume (L)  =   0.99805
                        Viscosity (mPa s)  =   0.89890
                        Activity of water  =   0.993
                 Ionic strength (mol/kgw)  =   3.520e-04
                       Mass of water (kg)  =   1.000e+00
                 Total alkalinity (eq/kg)  =   1.217e-09
                       Total CO2 (mol/kg)  =   1.702e-01
                         Temperature (°C)  =  25.00
                           Pressure (atm)  = 432.83
                  Electrical balance (eq)  =  -1.217e-09
 Percent error, 100*(Cat-|An|)/(Cat+|An|)  =  -0.00
                               Iterations  =  48 (149 overall)
                                  Total H  = 1.110124e+02
                                  Total O  = 5.584657e+01

----------------------------Distribution of species----------------------------

                                               Log       Log       Log    mole V
   Species          Molality    Activity  Molality  Activity     Gamma   cm³/mol

   H+              3.520e-04   3.449e-04    -3.453    -3.462    -0.009      0.00
   OH-             4.270e-11   4.181e-11   -10.370   -10.379    -0.009     -2.70
   H2O             5.551e+01   9.934e-01     1.744    -0.003     0.000     17.73
C(-4)         0.000e+00
   CH4             0.000e+00   0.000e+00  -125.128  -125.128     0.000     35.95
C(4)          1.702e-01
   CO2             1.689e-01   1.689e-01    -0.772    -0.772     0.000     34.36
   (CO2)2          4.706e-04   4.706e-04    -3.327    -3.327     0.000     67.89
   HCO3-           3.520e-04   3.448e-04    -3.453    -3.462    -0.009     25.70
   CO3-2           8.200e-11   7.543e-11   -10.086   -10.122    -0.036     -1.25
H(0)          0.000e+00
   H2              0.000e+00   0.000e+00   -40.384   -40.384     0.000     15.25
Mtg           2.194e-01
   Mtg             2.194e-01   2.194e-01    -0.659    -0.659     0.000     35.95
O(0)          3.235e-12
   O2              1.617e-12   1.618e-12   -11.791   -11.791     0.000     29.84

------------------------------Saturation indices-------------------------------

  Phase               SI** log IAP   log K(298 K, 433 atm)

  CH4(g)         -122.05   -125.13   -3.08  CH4
  CO2(g)            0.96     -0.77   -1.73  CO2	 Pressure  33.9 atm, phi 0.269
  H2(g)           -37.17    -40.38   -3.22  H2
  H2O(g)           -1.37     -0.00    1.37  H2O
  Mtg(g)            2.42     -0.66   -3.08  Mtg	 Pressure 399.0 atm, phi 0.657
  O2(g)            -8.67    -11.79   -3.12  O2

**For a gas, SI = log10(fugacity). Fugacity = pressure * phi / 1 atm.
  For ideal gases, phi = 1.

Reaction step 8.

WARNING: Numerical method failed, switching to numerical derivatives.
WARNING: Maximum iterations exceeded, 100

WARNING: Numerical method failed with this set of convergence parameters.

WARNING: Trying smaller step size, pe step size 10, 5 ... 

Using solution 1.	pH 7 charge
Using gas phase 6.	
Using reaction 1.	

Reaction 1.	

	  1.000e+00 moles of the following reaction have been added:

	                 Relative
	Reactant            moles

	CO2                  1.00000

	                 Relative
	Element             moles
	C                    1.00000
	O                    2.00000

----------------------------------User print-----------------------------------

          25   4.0936e+02   6.6157e-01 

-----------------------------------Gas phase-----------------------------------

Total pressure: 466.86      atmospheres          (Peng-Robinson calculation)
    Gas volume:   1.00e+00 liters
  Molar volume:   5.39e-02 liters/mole
   P * Vm / RT:  1.02761  (Compressibility Factor Z) 

                                                        Moles in gas
                                            ----------------------------------
Component         log P           P    phi     Initial       Final       Delta

CO2(g)             1.76   5.751e+01  0.257   1.381e+00   2.287e+00   9.063e-01
Mtg(g)             2.61   4.094e+02  0.662   1.628e+01   1.628e+01   4.030e-03

-----------------------------Solution composition------------------------------

	Elements           Molality       Moles

	C                 2.639e-01   2.639e-01
	Mtg               2.154e-01   2.154e-01

----------------------------Description of solution----------------------------

                                       pH  =   3.360      Charge balance
                                       pe  =  15.198      Adjusted to redox equilibrium
      Specific Conductance (µS/cm,  25°C)  = 174
                          Density (g/cm³)  =   1.01533
                               Volume (L)  =   0.99974
                        Viscosity (mPa s)  =   0.90540
                        Activity of water  =   0.992
                 Ionic strength (mol/kgw)  =   4.461e-04
                       Mass of water (kg)  =   1.000e+00
                 Total alkalinity (eq/kg)  =   1.217e-09
                       Total CO2 (mol/kg)  =   2.639e-01
                         Temperature (°C)  =  25.00
                           Pressure (atm)  = 466.86
                  Electrical balance (eq)  =  -1.217e-09
 Percent error, 100*(Cat-|An|)/(Cat+|An|)  =  -0.00
                               Iterations  =  37 (138 overall)
                                  Total H  = 1.110124e+02
                                  Total O  = 5.603406e+01

----------------------------Distribution of species----------------------------

                                               Log       Log       Log    mole V
   Species          Molality    Activity  Molality  Activity     Gamma   cm³/mol

   H+              4.461e-04   4.360e-04    -3.351    -3.360    -0.010      0.00
   OH-             3.471e-11   3.389e-11   -10.460   -10.470    -0.010     -2.60
   H2O             5.551e+01   9.919e-01     1.744    -0.004     0.000     17.71
C(-4)         0.000e+00
   CH4             0.000e+00   0.000e+00  -124.956  -124.956     0.000     35.99
C(4)          2.639e-01
   CO2             2.612e-01   2.612e-01    -0.583    -0.583     0.000     34.33
   (CO2)2          1.127e-03   1.127e-03    -2.948    -2.948     0.000     67.83
   HCO3-           4.461e-04   4.358e-04    -3.351    -3.361    -0.010     25.78
   CO3-2           8.571e-11   7.806e-11   -10.067   -10.108    -0.041     -1.00
H(0)          0.000e+00
   H2              0.000e+00   0.000e+00   -40.392   -40.392     0.000     15.26
Mtg           2.154e-01
   Mtg             2.154e-01   2.154e-01    -0.667    -0.667     0.000     35.99
O(0)          3.235e-12
   O2              1.618e-12   1.618e-12   -11.791   -11.791     0.000     29.80

------------------------------Saturation indices-------------------------------

  Phase               SI** log IAP   log K(298 K, 467 atm)

  CH4(g)         -121.86   -124.96   -3.10  CH4
  CO2(g)            1.17     -0.58   -1.75  CO2	 Pressure  57.5 atm, phi 0.257
  H2(g)           -37.17    -40.39   -3.23  H2
  H2O(g)           -1.36     -0.00    1.36  H2O
  Mtg(g)            2.43     -0.67   -3.10  Mtg	 Pressure 409.4 atm, phi 0.662
  O2(g)            -8.65    -11.79   -3.14  O2

**For a gas, SI = log10(fugacity). Fugacity = pressure * phi / 1 atm.
  For ideal gases, phi = 1.

Reaction step 9.

WARNING: Numerical method failed, switching to numerical derivatives.
WARNING: Maximum iterations exceeded, 100

WARNING: Numerical method failed with this set of convergence parameters.

WARNING: Trying smaller step size, pe step size 10, 5 ... 

WARNING: Maximum iterations exceeded, 200

WARNING: Numerical method failed with this set of convergence parameters.

WARNING: Trying reduced tolerance 1e-16 ...

Using solution 1.	pH 7 charge
Using gas phase 6.	
Using reaction 1.	

Reaction 1.	

	  1.000e+00 moles of the following reaction have been added:

	                 Relative
	Reactant            moles

	CO2                  1.00000

	                 Relative
	Element             moles
	C                    1.00000
	O                    2.00000

----------------------------------User print-----------------------------------

          25   4.2382e+02   6.6910e-01 

-----------------------------------Gas phase-----------------------------------

Total pressure: 507.18      atmospheres          (Peng-Robinson calculation)
    Gas volume:   1.00e+00 liters
  Molar volume:   5.13e-02 liters/mole
   P * Vm / RT:  1.06370  (Compressibility Factor Z) 

                                                        Moles in gas
                                            ----------------------------------
Component         log P           P    phi     Initial       Final       Delta

CO2(g)             1.92   8.336e+01  0.246   2.287e+00   3.203e+00   9.159e-01
Mtg(g)             2.63   4.238e+02  0.669   1.628e+01   1.629e+01   3.000e-03

-----------------------------Solution composition------------------------------

	Elements           Molality       Moles

	C                 3.480e-01   3.480e-01
	Mtg               2.124e-01   2.124e-01

----------------------------Description of solution----------------------------

                                       pH  =   3.293      Charge balance
                                       pe  =  15.265      Adjusted to redox equilibrium
      Specific Conductance (µS/cm,  25°C)  = 203
                          Density (g/cm³)  =   1.01781
                               Volume (L)  =   1.00090
                        Viscosity (mPa s)  =   0.91130
                        Activity of water  =   0.990
                 Ionic strength (mol/kgw)  =   5.225e-04
                       Mass of water (kg)  =   1.000e+00
                 Total alkalinity (eq/kg)  =   1.217e-09
                       Total CO2 (mol/kg)  =   3.480e-01
                         Temperature (°C)  =  25.00
                           Pressure (atm)  = 507.18
                  Electrical balance (eq)  =  -1.217e-09
 Percent error, 100*(Cat-|An|)/(Cat+|An|)  =  -0.00
                               Iterations  =  33 (335 overall)
                                  Total H  = 1.110124e+02
                                  Total O  = 5.620224e+01

----------------------------Distribution of species----------------------------

                                               Log       Log       Log    mole V
   Species          Molality    Activity  Molality  Activity     Gamma   cm³/mol

   H+              5.225e-04   5.098e-04    -3.282    -3.293    -0.011      0.00
   OH-             3.062e-11   2.984e-11   -10.514   -10.525    -0.011     -2.48
   H2O             5.551e+01   9.905e-01     1.744    -0.004     0.000     17.68
C(-4)         0.000e+00
   CH4             0.000e+00   0.000e+00  -124.856  -124.856     0.000     36.02
C(4)          3.480e-01
   CO2             3.436e-01   3.436e-01    -0.464    -0.464     0.000     34.30
   (CO2)2          1.953e-03   1.953e-03    -2.709    -2.709     0.000     67.76
   HCO3-           5.225e-04   5.095e-04    -3.282    -3.293    -0.011     25.88
   CO3-2           8.987e-11   8.126e-11   -10.046   -10.090    -0.044     -0.72
H(0)          0.000e+00
   H2              0.000e+00   0.000e+00   -40.402   -40.402     0.000     15.28
Mtg           2.124e-01
   Mtg             2.124e-01   2.124e-01    -0.673    -0.673     0.000     36.02
O(0)          3.232e-12
   O2              1.616e-12   1.616e-12   -11.792   -11.792     0.000     29.75

------------------------------Saturation indices-------------------------------

  Phase               SI** log IAP   log K(298 K, 507 atm)

  CH4(g)         -121.73   -124.86   -3.13  CH4
  CO2(g)            1.31     -0.46   -1.78  CO2	 Pressure  83.4 atm, phi 0.246
  H2(g)           -37.17    -40.40   -3.24  H2
  H2O(g)           -1.35     -0.00    1.34  H2O
  Mtg(g)            2.45     -0.67   -3.13  Mtg	 Pressure 423.8 atm, phi 0.669
  O2(g)            -8.63    -11.79   -3.16  O2

**For a gas, SI = log10(fugacity). Fugacity = pressure * phi / 1 atm.
  For ideal gases, phi = 1.

Reaction step 10.

WARNING: Numerical method failed, switching to numerical derivatives.
WARNING: Maximum iterations exceeded, 100

WARNING: Numerical method failed with this set of convergence parameters.

WARNING: Trying smaller step size, pe step size 10, 5 ... 

Using solution 1.	pH 7 charge
Using gas phase 6.	
Using reaction 1.	

Reaction 1.	

	  1.000e+00 moles of the following reaction have been added:

	                 Relative
	Reactant            moles

	CO2                  1.00000

	                 Relative
	Element             moles
	C                    1.00000
	O                    2.00000

----------------------------------User print-----------------------------------

          25   4.4301e+02   6.8091e-01 

-----------------------------------Gas phase-----------------------------------

Total pressure: 555.26      atmospheres          (Peng-Robinson calculation)
    Gas volume:   1.00e+00 liters
  Molar volume:   4.90e-02 liters/mole
   P * Vm / RT:  1.11175  (Compressibility Factor Z) 

                                                        Moles in gas
                                            ----------------------------------
Component         log P           P    phi     Initial       Final       Delta

CO2(g)             2.05   1.123e+02  0.238   3.203e+00   4.127e+00   9.236e-01
Mtg(g)             2.65   4.430e+02  0.681   1.629e+01   1.629e+01   2.102e-03

-----------------------------Solution composition------------------------------

	Elements           Molality       Moles

	C                 4.244e-01   4.244e-01
	Mtg               2.103e-01   2.103e-01

----------------------------Description of solution----------------------------

                                       pH  =   3.240      Charge balance
                                       pe  =  15.316      Adjusted to redox equilibrium
      Specific Conductance (µS/cm,  25°C)  = 229
                          Density (g/cm³)  =   1.02049
                               Volume (L)  =   1.00153
                        Viscosity (mPa s)  =   0.91676
                        Activity of water  =   0.989
                 Ionic strength (mol/kgw)  =   5.905e-04
                       Mass of water (kg)  =   1.000e+00
                 Total alkalinity (eq/kg)  =   1.217e-09
                       Total CO2 (mol/kg)  =   4.244e-01
                         Temperature (°C)  =  25.00
                           Pressure (atm)  = 555.26
                  Electrical balance (eq)  =  -1.217e-09
 Percent error, 100*(Cat-|An|)/(Cat+|An|)  =  -0.00
                               Iterations  =  45 (146 overall)
                                  Total H  = 1.110124e+02
                                  Total O  = 5.635506e+01

----------------------------Distribution of species----------------------------

                                               Log       Log       Log    mole V
   Species          Molality    Activity  Molality  Activity     Gamma   cm³/mol

   H+              5.905e-04   5.754e-04    -3.229    -3.240    -0.011      0.00
   OH-             2.812e-11   2.737e-11   -10.551   -10.563    -0.012     -2.35
   H2O             5.551e+01   9.892e-01     1.744    -0.005     0.000     17.65
C(-4)         0.000e+00
   CH4             0.000e+00   0.000e+00  -124.795  -124.795     0.000     36.06
C(4)          4.244e-01
   CO2             4.180e-01   4.181e-01    -0.379    -0.379     0.000     34.26
   (CO2)2          2.896e-03   2.896e-03    -2.538    -2.538     0.000     67.68
   HCO3-           5.905e-04   5.750e-04    -3.229    -3.240    -0.012     25.99
   CO3-2           9.478e-11   8.519e-11   -10.023   -10.070    -0.046     -0.39
H(0)          0.000e+00
   H2              0.000e+00   0.000e+00   -40.413   -40.413     0.000     15.30
Mtg           2.103e-01
   Mtg             2.103e-01   2.103e-01    -0.677    -0.677     0.000     36.06
O(0)          3.233e-12
   O2              1.616e-12   1.617e-12   -11.791   -11.791     0.000     29.70

------------------------------Saturation indices-------------------------------

  Phase               SI** log IAP   log K(298 K, 555 atm)

  CH4(g)         -121.64   -124.80   -3.16  CH4
  CO2(g)            1.43     -0.38   -1.81  CO2	 Pressure 112.3 atm, phi 0.238
  H2(g)           -37.16    -40.41   -3.25  H2
  H2O(g)           -1.33     -0.00    1.33  H2O
  Mtg(g)            2.48     -0.68   -3.16  Mtg	 Pressure 443.0 atm, phi 0.681
  O2(g)            -8.61    -11.79   -3.18  O2

**For a gas, SI = log10(fugacity). Fugacity = pressure * phi / 1 atm.
  For ideal gases, phi = 1.

Reaction step 11.

WARNING: Numerical method failed, switching to numerical derivatives.
WARNING: Maximum iterations exceeded, 100

WARNING: Numerical method failed with this set of convergence parameters.

WARNING: Trying smaller step size, pe step size 10, 5 ... 

Using solution 1.	pH 7 charge
Using gas phase 6.	
Using reaction 1.	

Reaction 1.	

	  1.000e+00 moles of the following reaction have been added:

	                 Relative
	Reactant            moles

	CO2                  1.00000

	                 Relative
	Element             moles
	C                    1.00000
	O                    2.00000

----------------------------------User print-----------------------------------

          25   4.6776e+02   6.9847e-01 

-----------------------------------Gas phase-----------------------------------

Total pressure: 612.96      atmospheres          (Peng-Robinson calculation)
    Gas volume:   1.00e+00 liters
  Molar volume:   4.68e-02 liters/mole
   P * Vm / RT:  1.17374  (Compressibility Factor Z) 

                                                        Moles in gas
                                            ----------------------------------
Component         log P           P    phi     Initial       Final       Delta

CO2(g)             2.16   1.452e+02  0.232   4.127e+00   5.056e+00   9.296e-01
Mtg(g)             2.67   4.678e+02  0.698   1.629e+01   1.629e+01   1.349e-03

-----------------------------Solution composition------------------------------

	Elements           Molality       Moles

	C                 4.948e-01   4.948e-01
	Mtg               2.089e-01   2.089e-01

----------------------------Description of solution----------------------------

                                       pH  =   3.195      Charge balance
                                       pe  =  15.360      Adjusted to redox equilibrium
      Specific Conductance (µS/cm,  25°C)  = 253
                          Density (g/cm³)  =   1.02346
                               Volume (L)  =   1.00163
                        Viscosity (mPa s)  =   0.92197
                        Activity of water  =   0.988
                 Ionic strength (mol/kgw)  =   6.554e-04
                       Mass of water (kg)  =   1.000e+00
                 Total alkalinity (eq/kg)  =   1.217e-09
                       Total CO2 (mol/kg)  =   4.948e-01
                         Temperature (°C)  =  25.00
                           Pressure (atm)  = 612.96
                  Electrical balance (eq)  =  -1.217e-09
 Percent error, 100*(Cat-|An|)/(Cat+|An|)  =  -0.00
                               Iterations  =  45 (146 overall)
                                  Total H  = 1.110124e+02
                                  Total O  = 5.649586e+01

----------------------------Distribution of species----------------------------

                                               Log       Log       Log    mole V
   Species          Molality    Activity  Molality  Activity     Gamma   cm³/mol

   H+              6.554e-04   6.378e-04    -3.184    -3.195    -0.012      0.00
   OH-             2.647e-11   2.573e-11   -10.577   -10.590    -0.012     -2.20
   H2O             5.551e+01   9.881e-01     1.744    -0.005     0.000     17.60
C(-4)         0.000e+00
   CH4             0.000e+00   0.000e+00  -124.755  -124.755     0.000     36.11
C(4)          4.948e-01
   CO2             4.863e-01   4.864e-01    -0.313    -0.313     0.000     34.21
   (CO2)2          3.927e-03   3.927e-03    -2.406    -2.406     0.000     67.58
   HCO3-           6.554e-04   6.373e-04    -3.184    -3.196    -0.012     26.12
   CO3-2           1.008e-10   9.009e-11    -9.997   -10.045    -0.049     -0.02
H(0)          0.000e+00
   H2              0.000e+00   0.000e+00   -40.426   -40.426     0.000     15.33
Mtg           2.089e-01
   Mtg             2.089e-01   2.090e-01    -0.680    -0.680     0.000     36.11
O(0)          3.223e-12
   O2              1.611e-12   1.612e-12   -11.793   -11.793     0.000     29.64

------------------------------Saturation indices-------------------------------

  Phase               SI** log IAP   log K(298 K, 613 atm)

  CH4(g)         -121.56   -124.76   -3.19  CH4
  CO2(g)            1.53     -0.31   -1.84  CO2	 Pressure 145.2 atm, phi 0.232
  H2(g)           -37.16    -40.43   -3.27  H2
  H2O(g)           -1.32     -0.01    1.31  H2O
  Mtg(g)            2.51     -0.68   -3.19  Mtg	 Pressure 467.8 atm, phi 0.698
  O2(g)            -8.58    -11.79   -3.21  O2

**For a gas, SI = log10(fugacity). Fugacity = pressure * phi / 1 atm.
  For ideal gases, phi = 1.

Reaction step 12.

WARNING: Numerical method failed, switching to numerical derivatives.
WARNING: Maximum iterations exceeded, 100

WARNING: Numerical method failed with this set of convergence parameters.

WARNING: Trying smaller step size, pe step size 10, 5 ... 

Using solution 1.	pH 7 charge
Using gas phase 6.	
Using reaction 1.	

Reaction 1.	

	  1.000e+00 moles of the following reaction have been added:

	                 Relative
	Reactant            moles

	CO2                  1.00000

	                 Relative
	Element             moles
	C                    1.00000
	O                    2.00000

----------------------------------User print-----------------------------------

          25   4.9903e+02   7.2398e-01 

-----------------------------------Gas phase-----------------------------------

Total pressure: 682.56      atmospheres          (Peng-Robinson calculation)
    Gas volume:   1.00e+00 liters
  Molar volume:   4.49e-02 liters/mole
   P * Vm / RT:  1.25216  (Compressibility Factor Z) 

                                                        Moles in gas
                                            ----------------------------------
Component         log P           P    phi     Initial       Final       Delta

CO2(g)             2.26   1.835e+02  0.228   5.056e+00   5.991e+00   9.342e-01
Mtg(g)             2.70   4.990e+02  0.724   1.629e+01   1.629e+01   7.603e-04

-----------------------------Solution composition------------------------------

	Elements           Molality       Moles

	C                 5.606e-01   5.606e-01
	Mtg               2.082e-01   2.082e-01

----------------------------Description of solution----------------------------

                                       pH  =   3.155      Charge balance
                                       pe  =  15.399      Adjusted to redox equilibrium
      Specific Conductance (µS/cm,  25°C)  = 278
                          Density (g/cm³)  =   1.02682
                               Volume (L)  =   1.00116
                        Viscosity (mPa s)  =   0.92708
                        Activity of water  =   0.987
                 Ionic strength (mol/kgw)  =   7.207e-04
                       Mass of water (kg)  =   1.000e+00
                 Total alkalinity (eq/kg)  =   1.217e-09
                       Total CO2 (mol/kg)  =   5.606e-01
                         Temperature (°C)  =  25.00
                           Pressure (atm)  = 682.56
                  Electrical balance (eq)  =  -1.217e-09
 Percent error, 100*(Cat-|An|)/(Cat+|An|)  =  -0.00
                               Iterations  =  45 (146 overall)
                                  Total H  = 1.110124e+02
                                  Total O  = 5.662740e+01

----------------------------Distribution of species----------------------------

                                               Log       Log       Log    mole V
   Species          Molality    Activity  Molality  Activity     Gamma   cm³/mol

   H+              7.207e-04   7.006e-04    -3.142    -3.155    -0.012      0.00
   OH-             2.534e-11   2.460e-11   -10.596   -10.609    -0.013     -2.02
   H2O             5.551e+01   9.870e-01     1.744    -0.006     0.000     17.56
C(-4)         0.000e+00
   CH4             0.000e+00   0.000e+00  -124.735  -124.735     0.000     36.16
C(4)          5.606e-01
   CO2             5.498e-01   5.499e-01    -0.260    -0.260     0.000     34.15
   (CO2)2          5.031e-03   5.032e-03    -2.298    -2.298     0.000     67.46
   HCO3-           7.207e-04   7.000e-04    -3.142    -3.155    -0.013     26.26
   CO3-2           1.082e-10   9.626e-11    -9.966   -10.017    -0.051      0.42
H(0)          0.000e+00
   H2              0.000e+00   0.000e+00   -40.443   -40.443     0.000     15.36
Mtg           2.082e-01
   Mtg             2.082e-01   2.082e-01    -0.682    -0.682     0.000     36.16
O(0)          3.221e-12
   O2              1.610e-12   1.611e-12   -11.793   -11.793     0.000     29.57

------------------------------Saturation indices-------------------------------

  Phase               SI** log IAP   log K(298 K, 683 atm)

  CH4(g)         -121.50   -124.74   -3.24  CH4
  CO2(g)            1.62     -0.26   -1.88  CO2	 Pressure 183.5 atm, phi 0.228
  H2(g)           -37.16    -40.44   -3.29  H2
  H2O(g)           -1.30     -0.01    1.29  H2O
  Mtg(g)            2.56     -0.68   -3.24  Mtg	 Pressure 499.0 atm, phi 0.724
  O2(g)            -8.54    -11.79   -3.25  O2

**For a gas, SI = log10(fugacity). Fugacity = pressure * phi / 1 atm.
  For ideal gases, phi = 1.

Reaction step 13.

WARNING: Numerical method failed, switching to numerical derivatives.
WARNING: Maximum iterations exceeded, 100

WARNING: Numerical method failed with this set of convergence parameters.

WARNING: Trying smaller step size, pe step size 10, 5 ... 

Using solution 1.	pH 7 charge
Using gas phase 6.	
Using reaction 1.	

Reaction 1.	

	  1.000e+00 moles of the following reaction have been added:

	                 Relative
	Reactant            moles

	CO2                  1.00000

	                 Relative
	Element             moles
	C                    1.00000
	O                    2.00000

----------------------------------User print-----------------------------------

          25   5.3811e+02   7.6075e-01 

-----------------------------------Gas phase-----------------------------------

Total pressure: 766.98      atmospheres          (Peng-Robinson calculation)
    Gas volume:   1.00e+00 liters
  Molar volume:   4.31e-02 liters/mole
   P * Vm / RT:  1.35017  (Compressibility Factor Z) 

                                                        Moles in gas
                                            ----------------------------------
Component         log P           P    phi     Initial       Final       Delta

CO2(g)             2.36   2.289e+02  0.228   5.991e+00   6.928e+00   9.377e-01
Mtg(g)             2.73   5.381e+02  0.761   1.629e+01   1.629e+01   3.727e-04

-----------------------------Solution composition------------------------------

	Elements           Molality       Moles

	C                 6.229e-01   6.229e-01
	Mtg               2.078e-01   2.078e-01

----------------------------Description of solution----------------------------

                                       pH  =   3.115      Charge balance
                                       pe  =  15.436      Adjusted to redox equilibrium
      Specific Conductance (µS/cm,  25°C)  = 305
                          Density (g/cm³)  =   1.03067
                               Volume (L)  =   1.00007
                        Viscosity (mPa s)  =   0.93231
                        Activity of water  =   0.986
                 Ionic strength (mol/kgw)  =   7.897e-04
                       Mass of water (kg)  =   1.000e+00
                 Total alkalinity (eq/kg)  =   1.217e-09
                       Total CO2 (mol/kg)  =   6.229e-01
                         Temperature (°C)  =  25.00
                           Pressure (atm)  = 766.98
                  Electrical balance (eq)  =  -1.217e-09
 Percent error, 100*(Cat-|An|)/(Cat+|An|)  =  -0.00
                               Iterations  =  49 (150 overall)
                                  Total H  = 1.110124e+02
                                  Total O  = 5.675193e+01

----------------------------Distribution of species----------------------------

                                               Log       Log       Log    mole V
   Species          Molality    Activity  Molality  Activity     Gamma   cm³/mol

   H+              7.897e-04   7.668e-04    -3.103    -3.115    -0.013      0.00
   OH-             2.457e-11   2.382e-11   -10.610   -10.623    -0.013     -1.81
   H2O             5.551e+01   9.860e-01     1.744    -0.006     0.000     17.50
C(-4)         0.000e+00
   CH4             0.000e+00   0.000e+00  -124.730  -124.730     0.000     36.23
C(4)          6.229e-01
   CO2             6.097e-01   6.097e-01    -0.215    -0.215     0.000     34.08
   (CO2)2          6.204e-03   6.205e-03    -2.207    -2.207     0.000     67.33
   HCO3-           7.897e-04   7.661e-04    -3.103    -3.116    -0.013     26.44
   CO3-2           1.176e-10   1.041e-10    -9.930    -9.982    -0.053      0.93
H(0)          0.000e+00
   H2              0.000e+00   0.000e+00   -40.463   -40.463     0.000     15.39
Mtg           2.078e-01
   Mtg             2.078e-01   2.078e-01    -0.682    -0.682     0.000     36.23
O(0)          3.217e-12
   O2              1.609e-12   1.609e-12   -11.794   -11.793     0.000     29.49

------------------------------Saturation indices-------------------------------

  Phase               SI** log IAP   log K(298 K, 767 atm)

  CH4(g)         -121.44   -124.73   -3.29  CH4
  CO2(g)            1.72     -0.21   -1.93  CO2	 Pressure 228.9 atm, phi 0.228
  H2(g)           -37.15    -40.46   -3.31  H2
  H2O(g)           -1.27     -0.01    1.26  H2O
  Mtg(g)            2.61     -0.68   -3.29  Mtg	 Pressure 538.1 atm, phi 0.761
  O2(g)            -8.50    -11.79   -3.29  O2

**For a gas, SI = log10(fugacity). Fugacity = pressure * phi / 1 atm.
  For ideal gases, phi = 1.

Reaction step 14.

WARNING: Numerical method failed, switching to numerical derivatives.
WARNING: Maximum iterations exceeded, 100

WARNING: Numerical method failed with this set of convergence parameters.

WARNING: Trying smaller step size, pe step size 10, 5 ... 

Using solution 1.	pH 7 charge
Using gas phase 6.	
Using reaction 1.	

Reaction 1.	

	  1.000e+00 moles of the following reaction have been added:

	                 Relative
	Reactant            moles

	CO2                  1.00000

	                 Relative
	Element             moles
	C                    1.00000
	O                    2.00000

----------------------------------User print-----------------------------------

          25   5.8661e+02   8.1389e-01 

-----------------------------------Gas phase-----------------------------------

Total pressure: 869.97      atmospheres          (Peng-Robinson calculation)
    Gas volume:   1.00e+00 liters
  Molar volume:   4.14e-02 liters/mole
   P * Vm / RT:  1.47185  (Compressibility Factor Z) 

                                                        Moles in gas
                                            ----------------------------------
Component         log P           P    phi     Initial       Final       Delta

CO2(g)             2.45   2.834e+02  0.231   6.928e+00   7.869e+00   9.404e-01
Mtg(g)             2.77   5.866e+02  0.814   1.629e+01   1.629e+01   2.403e-04

-----------------------------Solution composition------------------------------

	Elements           Molality       Moles

	C                 6.825e-01   6.825e-01
	Mtg               2.075e-01   2.075e-01

----------------------------Description of solution----------------------------

                                       pH  =   3.076      Charge balance
                                       pe  =  15.609      Adjusted to redox equilibrium
      Specific Conductance (µS/cm,  25°C)  = 334
                          Density (g/cm³)  =   1.03515
                               Volume (L)  =   0.99828
                        Viscosity (mPa s)  =   0.93790
                        Activity of water  =   0.985
                 Ionic strength (mol/kgw)  =   8.660e-04
                       Mass of water (kg)  =   1.000e+00
                 Total alkalinity (eq/kg)  =   1.217e-09
                       Total CO2 (mol/kg)  =   6.825e-01
                         Temperature (°C)  =  25.00
                           Pressure (atm)  = 869.97
                  Electrical balance (eq)  =  -1.217e-09
 Percent error, 100*(Cat-|An|)/(Cat+|An|)  =  -0.00
                               Iterations  =  51 (152 overall)
                                  Total H  = 1.110124e+02
                                  Total O  = 5.687120e+01

----------------------------Distribution of species----------------------------

                                               Log       Log       Log    mole V
   Species          Molality    Activity  Molality  Activity     Gamma   cm³/mol

   H+              8.660e-04   8.399e-04    -3.062    -3.076    -0.013      0.00
   OH-             2.407e-11   2.331e-11   -10.619   -10.633    -0.014     -1.57
   H2O             5.551e+01   9.850e-01     1.744    -0.007     0.000     17.43
C(-4)         0.000e+00
   CH4             0.000e+00   0.000e+00  -125.826  -125.826     0.000     36.30
C(4)          6.825e-01
   CO2             6.667e-01   6.668e-01    -0.176    -0.176     0.000     34.00
   (CO2)2          7.446e-03   7.447e-03    -2.128    -2.128     0.000     67.17
   HCO3-           8.660e-04   8.391e-04    -3.062    -3.076    -0.014     26.64
   CO3-2           1.297e-10   1.143e-10    -9.887    -9.942    -0.055      1.52
H(0)          0.000e+00
   H2              0.000e+00   0.000e+00   -40.758   -40.758     0.000     15.43
Mtg           2.075e-01
   Mtg             2.075e-01   2.076e-01    -0.683    -0.683     0.000     36.30
O(0)          1.121e-11
   O2              5.603e-12   5.604e-12   -11.252   -11.252     0.000     29.40

------------------------------Saturation indices-------------------------------

  Phase               SI** log IAP   log K(298 K, 870 atm)

  CH4(g)         -122.46   -125.83   -3.36  CH4
  CO2(g)            1.82     -0.18   -1.99  CO2	 Pressure 283.4 atm, phi 0.231
  H2(g)           -37.42    -40.76   -3.34  H2
  H2O(g)           -1.24     -0.01    1.23  H2O
  Mtg(g)            2.68     -0.68   -3.36  Mtg	 Pressure 586.6 atm, phi 0.814
  O2(g)            -7.91    -11.25   -3.35  O2

**For a gas, SI = log10(fugacity). Fugacity = pressure * phi / 1 atm.
  For ideal gases, phi = 1.

Reaction step 15.

WARNING: Numerical method failed, switching to numerical derivatives.
WARNING: Maximum iterations exceeded, 100

WARNING: Numerical method failed with this set of convergence parameters.

WARNING: Trying smaller step size, pe step size 10, 5 ... 

Using solution 1.	pH 7 charge
Using gas phase 6.	
Using reaction 1.	

Reaction 1.	

	  1.000e+00 moles of the following reaction have been added:

	                 Relative
	Reactant            moles

	CO2                  1.00000

	                 Relative
	Element             moles
	C                    1.00000
	O                    2.00000

----------------------------------User print-----------------------------------

          25   6.4670e+02   8.9161e-01 

-----------------------------------Gas phase-----------------------------------

Total pressure: 996.48      atmospheres          (Peng-Robinson calculation)
    Gas volume:   1.00e+00 liters
  Molar volume:   3.98e-02 liters/mole
   P * Vm / RT:  1.62257  (Compressibility Factor Z) 

                                                        Moles in gas
                                            ----------------------------------
Component         log P           P    phi     Initial       Final       Delta

CO2(g)             2.54   3.498e+02  0.241   7.869e+00   8.811e+00   9.424e-01
Mtg(g)             2.81   6.467e+02  0.892   1.629e+01   1.629e+01   4.436e-04

-----------------------------Solution composition------------------------------

	Elements           Molality       Moles

	C                 7.401e-01   7.401e-01
	Mtg               2.071e-01   2.071e-01

----------------------------Description of solution----------------------------

                                       pH  =   3.035      Charge balance
                                       pe  =  15.648      Adjusted to redox equilibrium
      Specific Conductance (µS/cm,  25°C)  = 369
                          Density (g/cm³)  =   1.04042
                               Volume (L)  =   0.99565
                        Viscosity (mPa s)  =   0.94419
                        Activity of water  =   0.984
                 Ionic strength (mol/kgw)  =   9.534e-04
                       Mass of water (kg)  =   1.000e+00
                 Total alkalinity (eq/kg)  =   1.217e-09
                       Total CO2 (mol/kg)  =   7.401e-01
                         Temperature (°C)  =  25.00
                           Pressure (atm)  = 996.48
                  Electrical balance (eq)  =  -1.216e-09
 Percent error, 100*(Cat-|An|)/(Cat+|An|)  =  -0.00
                               Iterations  =  45 (146 overall)
                                  Total H  = 1.110124e+02
                                  Total O  = 5.698647e+01

----------------------------Distribution of species----------------------------

                                               Log       Log       Log    mole V
   Species          Molality    Activity  Molality  Activity     Gamma   cm³/mol

   H+              9.534e-04   9.236e-04    -3.021    -3.035    -0.014      0.00
   OH-             2.380e-11   2.302e-11   -10.623   -10.638    -0.015     -1.28
   H2O             5.551e+01   9.840e-01     1.744    -0.007     0.000     17.35
C(-4)         0.000e+00
   CH4             0.000e+00   0.000e+00  -125.853  -125.853     0.000     36.37
C(4)          7.401e-01
   CO2             7.217e-01   7.218e-01    -0.142    -0.142     0.000     33.91
   (CO2)2          8.761e-03   8.762e-03    -2.057    -2.057     0.000     66.98
   HCO3-           9.534e-04   9.226e-04    -3.021    -3.035    -0.014     26.87
   CO3-2           1.458e-10   1.278e-10    -9.836    -9.893    -0.057      2.20
H(0)          0.000e+00
   H2              0.000e+00   0.000e+00   -40.788   -40.788     0.000     15.48
Mtg           2.071e-01
   Mtg             2.071e-01   2.071e-01    -0.684    -0.684     0.000     36.37
O(0)          1.120e-11
   O2              5.600e-12   5.601e-12   -11.252   -11.252     0.000     29.29

------------------------------Saturation indices-------------------------------

  Phase               SI** log IAP   log K(298 K, 996 atm)

  CH4(g)         -122.41   -125.85   -3.44  CH4
  CO2(g)            1.93     -0.14   -2.07  CO2	 Pressure 349.8 atm, phi 0.241
  H2(g)           -37.42    -40.79   -3.37  H2
  H2O(g)           -1.20     -0.01    1.20  H2O
  Mtg(g)            2.76     -0.68   -3.44  Mtg	 Pressure 646.7 atm, phi 0.892
  O2(g)            -7.84    -11.25   -3.41  O2

**For a gas, SI = log10(fugacity). Fugacity = pressure * phi / 1 atm.
  For ideal gases, phi = 1.

Reaction step 16.

WARNING: Numerical method failed, switching to numerical derivatives.
WARNING: Maximum iterations exceeded, 100

WARNING: Numerical method failed with this set of convergence parameters.

WARNING: Trying smaller step size, pe step size 10, 5 ... 

Using solution 1.	pH 7 charge
Using gas phase 6.	
Using reaction 1.	

Reaction 1.	

	  1.000e+00 moles of the following reaction have been added:

	                 Relative
	Reactant            moles

	CO2                  1.00000

	                 Relative
	Element             moles
	C                    1.00000
	O                    2.00000

----------------------------------User print-----------------------------------

          25   7.2130e+02   1.0079e+00 

-----------------------------------Gas phase-----------------------------------

Total pressure: 1153.21      atmospheres          (Peng-Robinson calculation)
    Gas volume:   1.00e+00 liters
  Molar volume:   3.84e-02 liters/mole
   P * Vm / RT:  1.80963  (Compressibility Factor Z) 

                                                        Moles in gas
                                            ----------------------------------
Component         log P           P    phi     Initial       Final       Delta

CO2(g)             2.64   4.319e+02  0.259   8.811e+00   9.755e+00   9.440e-01
Mtg(g)             2.86   7.213e+02  1.008   1.629e+01   1.629e+01   1.100e-03

-----------------------------Solution composition------------------------------

	Elements           Molality       Moles

	C                 7.961e-01   7.961e-01
	Mtg               2.060e-01   2.060e-01

----------------------------Description of solution----------------------------

                                       pH  =   2.990      Charge balance
                                       pe  =  15.689      Adjusted to redox equilibrium
      Specific Conductance (µS/cm,  25°C)  = 410
                          Density (g/cm³)  =   1.04675
                               Volume (L)  =   0.99197
                        Viscosity (mPa s)  =   0.95172
                        Activity of water  =   0.983
                 Ionic strength (mol/kgw)  =   1.057e-03
                       Mass of water (kg)  =   1.000e+00
                 Total alkalinity (eq/kg)  =   1.216e-09
                       Total CO2 (mol/kg)  =   7.961e-01
                         Temperature (°C)  =  25.00
                           Pressure (atm)  = 1153.21
                  Electrical balance (eq)  =  -1.216e-09
 Percent error, 100*(Cat-|An|)/(Cat+|An|)  =  -0.00
                               Iterations  =  46 (147 overall)
                                  Total H  = 1.110124e+02
                                  Total O  = 5.709845e+01

----------------------------Distribution of species----------------------------

                                               Log       Log       Log    mole V
   Species          Molality    Activity  Molality  Activity     Gamma   cm³/mol

   H+              1.057e-03   1.023e-03    -2.976    -2.990    -0.014      0.00
   OH-             2.376e-11   2.294e-11   -10.624   -10.639    -0.015     -0.96
   H2O             5.551e+01   9.831e-01     1.744    -0.007     0.000     17.25
C(-4)         0.000e+00
   CH4             0.000e+00   0.000e+00  -125.898  -125.898     0.000     36.46
C(4)          7.961e-01
   CO2             7.748e-01   7.749e-01    -0.111    -0.111     0.000     33.80
   (CO2)2          1.015e-02   1.015e-02    -1.993    -1.993     0.000     66.76
   HCO3-           1.057e-03   1.021e-03    -2.976    -2.991    -0.015     27.14
   CO3-2           1.675e-10   1.461e-10    -9.776    -9.835    -0.060      2.99
H(0)          0.000e+00
   H2              0.000e+00   0.000e+00   -40.826   -40.826     0.000     15.52
Mtg           2.060e-01
   Mtg             2.060e-01   2.061e-01    -0.686    -0.686     0.000     36.46
O(0)          1.119e-11
   O2              5.597e-12   5.598e-12   -11.252   -11.252     0.000     29.17

------------------------------Saturation indices-------------------------------

  Phase               SI** log IAP   log K(298 K, 1153 atm)

  CH4(g)         -122.35   -125.90   -3.55  CH4
  CO2(g)            2.05     -0.11   -2.16  CO2	 Pressure 431.9 atm, phi 0.259
  H2(g)           -37.41    -40.83   -3.42  H2
  H2O(g)           -1.16     -0.01    1.15  H2O
  Mtg(g)            2.86     -0.69   -3.55  Mtg	 Pressure 721.3 atm, phi 1.008
  O2(g)            -7.76    -11.25   -3.49  O2

**For a gas, SI = log10(fugacity). Fugacity = pressure * phi / 1 atm.
  For ideal gases, phi = 1.

Reaction step 17.

WARNING: Numerical method failed, switching to numerical derivatives.
WARNING: Maximum iterations exceeded, 100

WARNING: Numerical method failed with this set of convergence parameters.

WARNING: Trying smaller step size, pe step size 10, 5 ... 

Using solution 1.	pH 7 charge
Using gas phase 6.	
Using reaction 1.	

Reaction 1.	

	  1.000e+00 moles of the following reaction have been added:

	                 Relative
	Reactant            moles

	CO2                  1.00000

	                 Relative
	Element             moles
	C                    1.00000
	O                    2.00000

----------------------------------User print-----------------------------------

          25   8.1451e+02   1.1881e+00 

-----------------------------------Gas phase-----------------------------------

Total pressure: 1349.43      atmospheres          (Peng-Robinson calculation)
    Gas volume:   1.00e+00 liters
  Molar volume:   3.70e-02 liters/mole
   P * Vm / RT:  2.04319  (Compressibility Factor Z) 

                                                        Moles in gas
                                            ----------------------------------
Component         log P           P    phi     Initial       Final       Delta

CO2(g)             2.73   5.349e+02  0.290   9.755e+00   1.070e+01   9.456e-01
Mtg(g)             2.91   8.145e+02  1.188   1.629e+01   1.629e+01   2.375e-03

-----------------------------Solution composition------------------------------

	Elements           Molality       Moles

	C                 8.505e-01   8.505e-01
	Mtg               2.036e-01   2.036e-01

----------------------------Description of solution----------------------------

                                       pH  =   2.942      Charge balance
                                       pe  =  15.734      Adjusted to redox equilibrium
      Specific Conductance (µS/cm,  25°C)  = 461
                          Density (g/cm³)  =   1.05453
                               Volume (L)  =   0.98688
                        Viscosity (mPa s)  =   0.96138
                        Activity of water  =   0.982
                 Ionic strength (mol/kgw)  =   1.184e-03
                       Mass of water (kg)  =   1.000e+00
                 Total alkalinity (eq/kg)  =   1.216e-09
                       Total CO2 (mol/kg)  =   8.505e-01
                         Temperature (°C)  =  25.00
                           Pressure (atm)  = 1349.43
                  Electrical balance (eq)  =  -1.216e-09
 Percent error, 100*(Cat-|An|)/(Cat+|An|)  =  -0.00
                               Iterations  =  51 (152 overall)
                                  Total H  = 1.110124e+02
                                  Total O  = 5.720725e+01

----------------------------Distribution of species----------------------------

                                               Log       Log       Log    mole V
   Species          Molality    Activity  Molality  Activity     Gamma   cm³/mol

   H+              1.184e-03   1.144e-03    -2.927    -2.942    -0.015      0.00
   OH-             2.393e-11   2.307e-11   -10.621   -10.637    -0.016     -0.59
   H2O             5.551e+01   9.823e-01     1.744    -0.008     0.000     17.13
C(-4)         0.000e+00
   CH4             0.000e+00   0.000e+00  -125.967  -125.967     0.000     36.55
C(4)          8.505e-01
   CO2             8.261e-01   8.263e-01    -0.083    -0.083     0.000     33.67
[...]
   H2O             5.551e+01   9.869e-01     1.744    -0.006     0.000     17.86
C(-4)         0.000e+00
   CH4             0.000e+00   0.000e+00  -104.458  -104.458     0.000     38.89
C(4)          6.374e-01
   CO2             5.840e-01   5.841e-01    -0.234    -0.234     0.000     35.83
   (CO2)2          2.629e-02   2.629e-02    -1.580    -1.580     0.000     70.82
   HCO3-           7.868e-04   7.612e-04    -3.104    -3.119    -0.014     27.80
   CO3-2           1.812e-10   1.587e-10    -9.742    -9.799    -0.058      1.78
H(0)          1.854e-34
   H2              9.268e-35   9.269e-35   -34.033   -34.033     0.000     16.84
Mtg           1.567e-01
   Mtg             1.567e-01   1.568e-01    -0.805    -0.805     0.000     38.89
O(0)          2.865e-11
   O2              1.432e-11   1.433e-11   -10.844   -10.844     0.000     31.17

------------------------------Saturation indices-------------------------------

  Phase               SI** log IAP   log K(348 K, 823 atm)

  CH4(g)         -100.96   -104.46   -3.50  CH4
  CO2(g)            2.09     -0.23   -2.32  CO2	 Pressure 304.3 atm, phi 0.402
  H2(g)           -30.70    -34.03   -3.33  H2
  H2O(g)           -0.21     -0.01    0.20  H2O
  Mtg(g)            2.69     -0.80   -3.50  Mtg	 Pressure 518.8 atm, phi 0.954
  O2(g)            -7.36    -10.84   -3.49  O2

**For a gas, SI = log10(fugacity). Fugacity = pressure * phi / 1 atm.
  For ideal gases, phi = 1.

Reaction step 15.

WARNING: Numerical method failed, switching to numerical derivatives.
WARNING: Maximum iterations exceeded, 100

WARNING: Numerical method failed with this set of convergence parameters.

WARNING: Trying smaller step size, pe step size 10, 5 ... 

Using solution 1.	pH 7 charge
Using gas phase 6.	
Using reaction 1.	

Reaction 1.	

	  1.000e+00 moles of the following reaction have been added:

	                 Relative
	Reactant            moles

	CO2                  1.00000

	                 Relative
	Element             moles
	C                    1.00000
	O                    2.00000

----------------------------------User print-----------------------------------

          75   5.5545e+02   1.0110e+00 

-----------------------------------Gas phase-----------------------------------

Total pressure: 919.91      atmospheres          (Peng-Robinson calculation)
    Gas volume:   1.00e+00 liters
  Molar volume:   4.48e-02 liters/mole
   P * Vm / RT:  1.44219  (Compressibility Factor Z) 

                                                        Moles in gas
                                            ----------------------------------
Component         log P           P    phi     Initial       Final       Delta

CO2(g)             2.56   3.645e+02  0.410   7.907e+00   8.846e+00   9.391e-01
Mtg(g)             2.74   5.554e+02  1.011   1.348e+01   1.348e+01   6.928e-04

-----------------------------Solution composition------------------------------

	Elements           Molality       Moles

	C                 6.983e-01   6.983e-01
	Mtg               1.560e-01   1.560e-01

----------------------------Description of solution----------------------------

                                       pH  =   3.085      Charge balance
                                       pe  =  12.157      Adjusted to redox equilibrium
      Specific Conductance (µS/cm,  75°C)  = 505
                          Density (g/cm³)  =   1.01396
                               Volume (L)  =   1.01901
                        Viscosity (mPa s)  =   0.40902
                        Activity of water  =   0.986
                 Ionic strength (mol/kgw)  =   8.508e-04
                       Mass of water (kg)  =   1.000e+00
                 Total alkalinity (eq/kg)  =   1.955e-06
                       Total CO2 (mol/kg)  =   6.983e-01
                         Temperature (°C)  =  75.00
                           Pressure (atm)  = 919.91
                  Electrical balance (eq)  =  -1.955e-06
 Percent error, 100*(Cat-|An|)/(Cat+|An|)  =  -0.11
                               Iterations  =  45 (146 overall)
                                  Total H  = 1.110124e+02
                                  Total O  = 5.690286e+01

----------------------------Distribution of species----------------------------

                                               Log       Log       Log    mole V
   Species          Molality    Activity  Molality  Activity     Gamma   cm³/mol

   H+              8.499e-04   8.222e-04    -3.071    -3.085    -0.014      0.00
   OH-             5.618e-10   5.425e-10    -9.250    -9.266    -0.015     -6.77
   H2O             5.551e+01   9.860e-01     1.744    -0.006     0.000     17.80
C(-4)         0.000e+00
   CH4             0.000e+00   0.000e+00  -104.465  -104.465     0.000     38.87
C(4)          6.983e-01
   CO2             6.351e-01   6.352e-01    -0.197    -0.197     0.000     35.69
   (CO2)2          3.118e-02   3.118e-02    -1.506    -1.506     0.000     70.53
   HCO3-           8.518e-04   8.232e-04    -3.070    -3.085    -0.015     28.03
   CO3-2           1.962e-10   1.711e-10    -9.707    -9.767    -0.059      2.40
H(0)          1.766e-34
   H2              8.831e-35   8.833e-35   -34.054   -34.054     0.000     16.79
Mtg           1.560e-01
   Mtg             1.560e-01   1.561e-01    -0.807    -0.807     0.000     38.87
O(0)          2.866e-11
   O2              1.433e-11   1.433e-11   -10.844   -10.844     0.000     31.01

------------------------------Saturation indices-------------------------------

  Phase               SI** log IAP   log K(348 K, 920 atm)

  CH4(g)         -100.91   -104.47   -3.56  CH4
  CO2(g)            2.17     -0.20   -2.37  CO2	 Pressure 364.5 atm, phi 0.410
  H2(g)           -30.70    -34.05   -3.36  H2
  H2O(g)           -0.18     -0.01    0.17  H2O
  Mtg(g)            2.75     -0.81   -3.56  Mtg	 Pressure 555.4 atm, phi 1.011
  O2(g)            -7.31    -10.84   -3.53  O2

**For a gas, SI = log10(fugacity). Fugacity = pressure * phi / 1 atm.
  For ideal gases, phi = 1.

Reaction step 16.

WARNING: Numerical method failed, switching to numerical derivatives.
WARNING: Maximum iterations exceeded, 100

WARNING: Numerical method failed with this set of convergence parameters.

WARNING: Trying smaller step size, pe step size 10, 5 ... 

Using solution 1.	pH 7 charge
Using gas phase 6.	
Using reaction 1.	

Reaction 1.	

	  1.000e+00 moles of the following reaction have been added:

	                 Relative
	Reactant            moles

	CO2                  1.00000

	                 Relative
	Element             moles
	C                    1.00000
	O                    2.00000

----------------------------------User print-----------------------------------

          75   5.9964e+02   1.0887e+00 

-----------------------------------Gas phase-----------------------------------

Total pressure: 1034.85      atmospheres          (Peng-Robinson calculation)
    Gas volume:   1.00e+00 liters
  Molar volume:   4.30e-02 liters/mole
   P * Vm / RT:  1.55684  (Compressibility Factor Z) 

                                                        Moles in gas
                                            ----------------------------------
Component         log P           P    phi     Initial       Final       Delta

CO2(g)             2.64   4.352e+02  0.426   8.846e+00   9.785e+00   9.393e-01
Mtg(g)             2.78   5.996e+02  1.089   1.348e+01   1.348e+01   7.382e-04

-----------------------------Solution composition------------------------------

	Elements           Molality       Moles

	C                 7.590e-01   7.590e-01
	Mtg               1.553e-01   1.553e-01

----------------------------Description of solution----------------------------

                                       pH  =   3.050      Charge balance
                                       pe  =  12.190      Adjusted to redox equilibrium
      Specific Conductance (µS/cm,  75°C)  = 545
                          Density (g/cm³)  =   1.01861
                               Volume (L)  =   1.01696
                        Viscosity (mPa s)  =   0.41284
                        Activity of water  =   0.985
                 Ionic strength (mol/kgw)  =   9.227e-04
                       Mass of water (kg)  =   1.000e+00
                 Total alkalinity (eq/kg)  =   1.955e-06
                       Total CO2 (mol/kg)  =   7.590e-01
                         Temperature (°C)  =  75.00
                           Pressure (atm)  = 1034.85
                  Electrical balance (eq)  =  -1.955e-06
 Percent error, 100*(Cat-|An|)/(Cat+|An|)  =  -0.11
                               Iterations  =  52 (153 overall)
                                  Total H  = 1.110124e+02
                                  Total O  = 5.702418e+01

----------------------------Distribution of species----------------------------

                                               Log       Log       Log    mole V
   Species          Molality    Activity  Molality  Activity     Gamma   cm³/mol

   H+              9.217e-04   8.908e-04    -3.035    -3.050    -0.015      0.00
   OH-             5.750e-10   5.547e-10    -9.240    -9.256    -0.016     -6.97
   H2O             5.551e+01   9.851e-01     1.744    -0.007     0.000     17.73
C(-4)         0.000e+00
   CH4             0.000e+00   0.000e+00  -104.483  -104.483     0.000     38.84
C(4)          7.590e-01
   CO2             6.852e-01   6.853e-01    -0.164    -0.164     0.000     35.53
   (CO2)2          3.642e-02   3.642e-02    -1.439    -1.439     0.000     70.22
   HCO3-           9.237e-04   8.916e-04    -3.034    -3.050    -0.015     28.28
   CO3-2           2.149e-10   1.865e-10    -9.668    -9.729    -0.061      3.10
H(0)          1.670e-34
   H2              8.348e-35   8.350e-35   -34.078   -34.078     0.000     16.73
Mtg           1.553e-01
   Mtg             1.553e-01   1.553e-01    -0.809    -0.809     0.000     38.84
O(0)          2.864e-11
   O2              1.432e-11   1.432e-11   -10.844   -10.844     0.000     30.84

------------------------------Saturation indices-------------------------------

  Phase               SI** log IAP   log K(348 K, 1035 atm)

  CH4(g)         -100.86   -104.48   -3.62  CH4
  CO2(g)            2.27     -0.16   -2.43  CO2	 Pressure 435.2 atm, phi 0.426
  H2(g)           -30.69    -34.08   -3.38  H2
  H2O(g)           -0.15     -0.01    0.14  H2O
  Mtg(g)            2.81     -0.81   -3.62  Mtg	 Pressure 599.6 atm, phi 1.089
  O2(g)            -7.26    -10.84   -3.58  O2

**For a gas, SI = log10(fugacity). Fugacity = pressure * phi / 1 atm.
  For ideal gases, phi = 1.

Reaction step 17.

WARNING: Numerical method failed, switching to numerical derivatives.
WARNING: Maximum iterations exceeded, 100

WARNING: Numerical method failed with this set of convergence parameters.

WARNING: Trying smaller step size, pe step size 10, 5 ... 

Using solution 1.	pH 7 charge
Using gas phase 6.	
Using reaction 1.	

Reaction 1.	

	  1.000e+00 moles of the following reaction have been added:

	                 Relative
	Reactant            moles

	CO2                  1.00000

	                 Relative
	Element             moles
	C                    1.00000
	O                    2.00000

----------------------------------User print-----------------------------------

          75   6.5291e+02   1.1960e+00 

-----------------------------------Gas phase-----------------------------------

Total pressure: 1172.24      atmospheres          (Peng-Robinson calculation)
    Gas volume:   1.00e+00 liters
  Molar volume:   4.13e-02 liters/mole
   P * Vm / RT:  1.69503  (Compressibility Factor Z) 

                                                        Moles in gas
                                            ----------------------------------
Component         log P           P    phi     Initial       Final       Delta

CO2(g)             2.72   5.193e+02  0.450   9.785e+00   1.072e+01   9.392e-01
Mtg(g)             2.81   6.529e+02  1.196   1.348e+01   1.348e+01   9.749e-04

-----------------------------Solution composition------------------------------

	Elements           Molality       Moles

	C                 8.198e-01   8.198e-01
	Mtg               1.543e-01   1.543e-01

----------------------------Description of solution----------------------------

                                       pH  =   3.014      Charge balance
                                       pe  =  12.224      Adjusted to redox equilibrium
      Specific Conductance (µS/cm,  75°C)  = 591
                          Density (g/cm³)  =   1.02395
                               Volume (L)  =   1.01426
                        Viscosity (mPa s)  =   0.41732
                        Activity of water  =   0.984
                 Ionic strength (mol/kgw)  =   1.004e-03
                       Mass of water (kg)  =   1.000e+00
                 Total alkalinity (eq/kg)  =   1.955e-06
                       Total CO2 (mol/kg)  =   8.198e-01
                         Temperature (°C)  =  75.00
                           Pressure (atm)  = 1172.24
                  Electrical balance (eq)  =  -1.955e-06
 Percent error, 100*(Cat-|An|)/(Cat+|An|)  =  -0.10
                               Iterations  =  66 (167 overall)
                                  Total H  = 1.110124e+02
                                  Total O  = 5.714586e+01

----------------------------Distribution of species----------------------------

                                               Log       Log       Log    mole V
   Species          Molality    Activity  Molality  Activity     Gamma   cm³/mol

   H+              1.003e-03   9.683e-04    -2.999    -3.014    -0.015      0.00
   OH-             5.991e-10   5.771e-10    -9.223    -9.239    -0.016     -7.18
   H2O             5.551e+01   9.841e-01     1.744    -0.007     0.000     17.64
C(-4)         0.000e+00
   CH4             0.000e+00   0.000e+00  -104.514  -104.514     0.000     38.81
C(4)          8.198e-01
   CO2             7.348e-01   7.349e-01    -0.134    -0.134     0.000     35.35
   (CO2)2          4.204e-02   4.204e-02    -1.376    -1.376     0.000     69.86
   HCO3-           1.005e-03   9.690e-04    -2.998    -3.014    -0.016     28.56
   CO3-2           2.386e-10   2.062e-10    -9.622    -9.686    -0.064      3.89
H(0)          1.562e-34
   H2              7.808e-35   7.810e-35   -34.107   -34.107     0.000     16.66
Mtg           1.543e-01
   Mtg             1.543e-01   1.544e-01    -0.812    -0.811     0.000     38.81
O(0)          2.864e-11
   O2              1.432e-11   1.432e-11   -10.844   -10.844     0.000     30.64

------------------------------Saturation indices-------------------------------

  Phase               SI** log IAP   log K(348 K, 1172 atm)

  CH4(g)         -100.81   -104.51   -3.70  CH4
  CO2(g)            2.37     -0.13   -2.50  CO2	 Pressure 519.3 atm, phi 0.450
  H2(g)           -30.69    -34.11   -3.42  H2
  H2O(g)           -0.12     -0.01    0.11  H2O
  Mtg(g)            2.89     -0.81   -3.70  Mtg	 Pressure 652.9 atm, phi 1.196
  O2(g)            -7.20    -10.84   -3.64  O2

**For a gas, SI = log10(fugacity). Fugacity = pressure * phi / 1 atm.
  For ideal gases, phi = 1.

Reaction step 18.

WARNING: Numerical method failed, switching to numerical derivatives.
WARNING: Maximum iterations exceeded, 100

WARNING: Numerical method failed with this set of convergence parameters.

WARNING: Trying smaller step size, pe step size 10, 5 ... 

Using solution 1.	pH 7 charge
Using gas phase 6.	
Using reaction 1.	

Reaction 1.	

	  1.000e+00 moles of the following reaction have been added:

	                 Relative
	Reactant            moles

	CO2                  1.00000

	                 Relative
	Element             moles
	C                    1.00000
	O                    2.00000

----------------------------------User print-----------------------------------

          75   7.1731e+02   1.3477e+00 

-----------------------------------Gas phase-----------------------------------

Total pressure: 1337.74      atmospheres          (Peng-Robinson calculation)
    Gas volume:   1.00e+00 liters
  Molar volume:   3.98e-02 liters/mole
   P * Vm / RT:  1.86202  (Compressibility Factor Z) 

                                                        Moles in gas
                                            ----------------------------------
Component         log P           P    phi     Initial       Final       Delta

CO2(g)             2.79   6.204e+02  0.489   1.072e+01   1.166e+01   9.386e-01
Mtg(g)             2.86   7.173e+02  1.348   1.348e+01   1.348e+01   1.453e-03

-----------------------------Solution composition------------------------------

	Elements           Molality       Moles

	C                 8.812e-01   8.812e-01
	Mtg               1.529e-01   1.529e-01

----------------------------Description of solution----------------------------

                                       pH  =   2.976      Charge balance
                                       pe  =  12.259      Adjusted to redox equilibrium
      Specific Conductance (µS/cm,  75°C)  = 643
                          Density (g/cm³)  =   1.03008
                               Volume (L)  =   1.01083
                        Viscosity (mPa s)  =   0.42262
                        Activity of water  =   0.983
                 Ionic strength (mol/kgw)  =   1.098e-03
                       Mass of water (kg)  =   1.000e+00
                 Total alkalinity (eq/kg)  =   1.955e-06
                       Total CO2 (mol/kg)  =   8.812e-01
                         Temperature (°C)  =  75.00
                           Pressure (atm)  = 1337.74
                  Electrical balance (eq)  =  -1.955e-06
 Percent error, 100*(Cat-|An|)/(Cat+|An|)  =  -0.09
                               Iterations  =  49 (150 overall)
                                  Total H  = 1.110124e+02
                                  Total O  = 5.726859e+01

----------------------------Distribution of species----------------------------

                                               Log       Log       Log    mole V
   Species          Molality    Activity  Molality  Activity     Gamma   cm³/mol

   H+              1.097e-03   1.058e-03    -2.960    -2.976    -0.016      0.00
   OH-             6.375e-10   6.134e-10    -9.196    -9.212    -0.017     -7.41
   H2O             5.551e+01   9.832e-01     1.744    -0.007     0.000     17.55
C(-4)         0.000e+00
   CH4             0.000e+00   0.000e+00  -104.559  -104.559     0.000     38.77
C(4)          8.812e-01
   CO2             7.839e-01   7.841e-01    -0.106    -0.106     0.000     35.15
   (CO2)2          4.809e-02   4.809e-02    -1.318    -1.318     0.000     69.46
   HCO3-           1.099e-03   1.058e-03    -2.959    -2.975    -0.016     28.87
   CO3-2           2.695e-10   2.316e-10    -9.570    -9.635    -0.066      4.77
H(0)          1.442e-34
   H2              7.208e-35   7.210e-35   -34.142   -34.142     0.000     16.58
Mtg           1.529e-01
   Mtg             1.529e-01   1.529e-01    -0.816    -0.816     0.000     38.77
O(0)          2.865e-11
   O2              1.432e-11   1.433e-11   -10.844   -10.844     0.000     30.41

------------------------------Saturation indices-------------------------------

  Phase               SI** log IAP   log K(348 K, 1338 atm)

  CH4(g)         -100.76   -104.56   -3.80  CH4
  CO2(g)            2.48     -0.11   -2.59  CO2	 Pressure 620.4 atm, phi 0.489
  H2(g)           -30.68    -34.14   -3.46  H2
  H2O(g)           -0.07     -0.01    0.07  H2O
  Mtg(g)            2.99     -0.82   -3.80  Mtg	 Pressure 717.3 atm, phi 1.348
  O2(g)            -7.13    -10.84   -3.72  O2

**For a gas, SI = log10(fugacity). Fugacity = pressure * phi / 1 atm.
  For ideal gases, phi = 1.

------------------
End of simulation.
------------------

------------------------------------
Reading input data for simulation 4.
------------------------------------

