WARNING: Database file from DATABASE keyword is used; command line argument ignored.
   Input file: phreeqc.test
  Output file: phreeqc.test.out
Database file: ../database/phreeqc.dat

------------------
Reading data base.
------------------

	SOLUTION_MASTER_SPECIES
	SOLUTION_SPECIES
	PHASES
	GAS_BINARY_PARAMETERS
	EXCHANGE_MASTER_SPECIES
	EXCHANGE_SPECIES
	SURFACE_MASTER_SPECIES
	SURFACE_SPECIES
	MEAN_GAMMAS
	RATES
	END
------------------------------------
Reading input data for simulation 1.
------------------------------------

	DATABASE ../database/phreeqc.dat
	SELECTED_OUTPUT 101
	    file                 phreeqc.test_101.sel
	USER_PUNCH 101
	    headings Mu SC
	    start
	10 PUNCH STR_F$(MU, 20, 12)
	20 PUNCH STR_F$(SC, 20, 10)
	    end
	KNOBS
		logfile
	PRINT
		status false
	SOLUTION_MASTER_SPECIES
	    U           U+4     0.000  238.0290  238.0290
	SOLUTION_SPECIES
	U+4 = U+4
		log_k		0.000
	U+4 + 4 H2O = U(OH)4 + 4 H+                                                     
		log_k		-8.538
		delta_h	24.760 kcal
	U+4 + 5 H2O = U(OH)5- + 5 H+                                                    
		log_k		-13.147
		delta_h	27.580 kcal
	U+4 + 2 H2O = UO2+ + 4 H+ + e-                                                  
		log_k		-6.432
		delta_h	31.130 kcal
	U+4 + 2 H2O = UO2+2 + 4 H+ + 2 e-                                            
		log_k		-9.217
		delta_h	34.430 kcal
	2 U+4 + 6 H2O = (UO2)2(OH)2+2 + 10 H+ + 4 e-                                         
		log_k		-24.060
		delta_h	32.820 kcal
	3 U+4 + 11 H2O = (UO2)3(OH)5+ + 17 H+ + 6 e-                                         
		log_k		-43.292
		delta_h	59.020 kcal
	U+4 + 2 H2O + CO3-2 = UO2CO3 + 4 H+ + 2 e-                                       
		log_k		0.847
		delta_h	35.270 kcal
	U+4 + 2 H2O + 2 CO3-2 = UO2(CO3)2-2 + 4 H+ + 2 e-                                  
		log_k		7.760
		delta_h	37.910 kcal
	U+4 + 2 H2O + 3 CO3-2 = UO2(CO3)3-4 + 4 H+ + 2 e-                                  
		log_k		12.180
		delta_h	25.650 kcal
	U+4 + 3 H2O = UO2OH+ + 5 H+ + 2 e-                                               
		log_k		-14.999
		delta_h	45.445 kcal
	SOLUTION 1  SEAWATER FROM NORDSTROM ET AL. (1979) TEST CASE IN PPM.                         
	         units       ppm
	            pH    8.2200
	            pe    8.4510
	       density    1.0230
	          temp   25.0000
	    Ca          4.123000E+02
	    Mg          1.291800E+03
	    Na          1.076800E+04
	    K           3.991000E+02
	    Fe          2.000000E-03
	    Mn          2.000000E-04
	    Al          2.000000E-03
	    Ba          2.000000E-02
	    Sr          8.140000E+00
	    Si          4.280000E+00
	    Cl          1.935300E+04
	    Alkalinity  1.416820E+02 as HCO3
	    S           2.712000E+03
	    N(5)        2.900000E-01 as NO3
	    B           4.450000E+00
	    P           6.000000E-02 as PO4
	    F           1.390000E+00
	    Li          1.810000E-01
	    Br          6.730000E+01
	    N(-3)       3.000000E-02 as NH4
	    U           3.300000E-03
	PHASES 1
	Uraninite    
		 UO2 + 4 H+ = U+4 + 2 H2O                                                  
		log_k		-3.490
		delta_h	-18.630  kcal
	END
-------------------------------------------
Beginning of initial solution calculations.
-------------------------------------------

Initial solution 1.	SEAWATER FROM NORDSTROM ET AL. (1979) TEST CASE IN PPM.                         

-----------------------------Solution composition------------------------------

	Elements           Molality       Moles

	Al                7.683e-08   7.683e-08
	Alkalinity        2.407e-03   2.407e-03
	B                 4.267e-04   4.267e-04
	Ba                1.509e-07   1.509e-07
	Br                8.730e-04   8.730e-04
	Ca                1.066e-02   1.066e-02
	Cl                5.658e-01   5.658e-01
	F                 7.583e-05   7.583e-05
	Fe                3.712e-08   3.712e-08
	K                 1.058e-02   1.058e-02
	Li                2.704e-05   2.704e-05
	Mg                5.507e-02   5.507e-02
	Mn                3.773e-09   3.773e-09
	N(-3)             1.724e-06   1.724e-06
	N(5)              4.847e-06   4.847e-06
	Na                4.855e-01   4.855e-01
	P                 6.548e-07   6.548e-07
	S                 2.926e-02   2.926e-02
	Si                7.383e-05   7.383e-05
	Sr                9.629e-05   9.629e-05
	U                 1.437e-08   1.437e-08

----------------------------Description of solution----------------------------

                                       pH  =   8.220    
                                       pe  =   8.451    
      Specific Conductance (µS/cm,  25°C)  = 52970
                          Density (g/cm³)  =   1.02333
                               Volume (L)  =   1.01283
                        Viscosity (mPa s)  =   0.95668
                        Activity of water  =   0.981
                 Ionic strength (mol/kgw)  =   6.744e-01
                       Mass of water (kg)  =   1.000e+00
                    Total carbon (mol/kg)  =   2.180e-03
                       Total CO2 (mol/kg)  =   2.180e-03
                         Temperature (°C)  =  25.00
                  Electrical balance (eq)  =   6.440e-05
 Percent error, 100*(Cat-|An|)/(Cat+|An|)  =   0.01
                               Iterations  =   9
                                  Total H  = 1.110160e+02
                                  Total O  = 5.563139e+01

---------------------------------Redox couples---------------------------------

	Redox couple             pe  Eh (volts)

	N(-3)/N(5)           4.6760      0.2766

----------------------------Distribution of species----------------------------

                                               Log       Log       Log    mole V
   Species          Molality    Activity  Molality  Activity     Gamma   cm³/mol

   OH-             2.705e-06   1.647e-06    -5.568    -5.783    -0.215     -2.63
   H+              7.983e-09   6.026e-09    -8.098    -8.220    -0.122      0.00
   H2O             5.551e+01   9.806e-01     1.744    -0.009     0.000     18.07
Al            7.683e-08
   Al(OH)4-        7.668e-08   4.960e-08    -7.115    -7.305    -0.189     (0)  
   Al(OH)3         1.385e-10   1.617e-10    -9.859    -9.791     0.067     (0)  
   Al(OH)2+        9.987e-12   6.745e-12   -11.001   -11.171    -0.170     (0)  
   AlOH+2          2.542e-14   5.288e-15   -13.595   -14.277    -0.682    -26.61
   AlF2+           1.332e-14   8.997e-15   -13.875   -14.046    -0.170     (0)  
   AlF+2           3.684e-15   7.663e-16   -14.434   -15.116    -0.682     (0)  
   AlF3            2.272e-15   2.653e-15   -14.644   -14.576     0.067     (0)  
   Al+3            4.115e-17   3.271e-18   -16.386   -17.485    -1.100    -40.24
   AlF4-           3.825e-17   2.474e-17   -16.417   -16.607    -0.189     (0)  
   AlSO4+          3.606e-17   2.333e-17   -16.443   -16.632    -0.189     (0)  
   Al(SO4)2-       2.571e-18   1.663e-18   -17.590   -17.779    -0.189     (0)  
   AlHSO4+2        4.007e-26   1.246e-26   -25.397   -25.904    -0.507     (0)  
B             4.267e-04
   H3BO3           3.712e-04   4.336e-04    -3.430    -3.363     0.067     39.23
   H2BO3-          5.544e-05   4.141e-05    -4.256    -4.383    -0.127     (0)  
   BF(OH)3-        5.414e-09   4.043e-09    -8.266    -8.393    -0.127     (0)  
   BF2(OH)2-       8.351e-14   6.236e-14   -13.078   -13.205    -0.127     (0)  
   BF3OH-          1.318e-20   9.843e-21   -19.880   -20.007    -0.127     (0)  
   BF4-            7.729e-27   5.772e-27   -26.112   -26.239    -0.127     (0)  
Ba            1.509e-07
   Ba+2            1.502e-07   4.357e-08    -6.823    -7.361    -0.537    -11.05
   BaHCO3+         6.017e-10   4.494e-10    -9.221    -9.347    -0.127     (0)  
   BaCO3           1.614e-10   1.885e-10    -9.792    -9.725     0.067    -10.70
   BaOH+           3.622e-13   2.403e-13   -12.441   -12.619    -0.178     (0)  
Br            8.730e-04
   Br-             8.730e-04   5.493e-04    -3.059    -3.260    -0.201     25.23
C(4)          2.180e-03
   HCO3-           1.574e-03   1.076e-03    -2.803    -2.968    -0.165     28.02
   MgHCO3+         2.796e-04   1.758e-04    -3.553    -3.755    -0.201      5.82
   NaHCO3          1.437e-04   1.816e-04    -3.843    -3.741     0.102     17.66
   MgCO3           9.556e-05   1.116e-04    -4.020    -3.952     0.067    -17.09
   CO3-2           4.026e-05   8.374e-06    -4.395    -5.077    -0.682     -0.67
   CaCO3           2.983e-05   3.484e-05    -4.525    -4.458     0.067    -14.60
   CO2             1.342e-05   1.487e-05    -4.872    -4.828     0.045     34.79
   KHCO3           2.650e-06   3.095e-06    -5.577    -5.509     0.067     21.42
   SrHCO3+         5.228e-07   3.531e-07    -6.282    -6.452    -0.170     (0)  
   SrCO3           9.819e-08   1.147e-07    -7.008    -6.941     0.067    -14.13
   UO2(CO3)3-4     1.264e-08   1.183e-10    -7.898    -9.927    -2.029     (0)  
   UO2(CO3)2-2     1.726e-09   5.370e-10    -8.763    -9.270    -0.507     (0)  
   BaHCO3+         6.017e-10   4.494e-10    -9.221    -9.347    -0.127     (0)  
   CaHCO3+         3.377e-10   2.336e-10    -9.472    -9.631    -0.160      9.96
   MnCO3           2.839e-10   3.315e-10    -9.547    -9.479     0.067     (0)  
   BaCO3           1.614e-10   1.885e-10    -9.792    -9.725     0.067    -10.70
   MnHCO3+         7.206e-11   4.780e-11   -10.142   -10.321    -0.178     (0)  
   UO2CO3          6.708e-12   7.835e-12   -11.173   -11.106     0.067     (0)  
   (CO2)2          3.243e-12   3.593e-12   -11.489   -11.445     0.045     68.75
   FeCO3           1.739e-16   2.031e-16   -15.760   -15.692     0.067     (0)  
   FeHCO3+         1.457e-16   1.088e-16   -15.837   -15.963    -0.127     (0)  
Ca            1.066e-02
   Ca+2            9.905e-03   2.477e-03    -2.004    -2.606    -0.602    -16.69
   CaSO4           7.269e-04   7.789e-04    -3.139    -3.109     0.030      7.22
   CaCO3           2.983e-05   3.484e-05    -4.525    -4.458     0.067    -14.60
   CaOH+           8.956e-08   6.688e-08    -7.048    -7.175    -0.127     (0)  
   CaHPO4          3.279e-08   3.829e-08    -7.484    -7.417     0.067     (0)  
   CaPO4-          2.226e-08   1.504e-08    -7.652    -7.823    -0.170     (0)  
   CaHCO3+         3.377e-10   2.336e-10    -9.472    -9.631    -0.160      9.96
   CaH2PO4+        2.568e-10   1.734e-10    -9.590    -9.761    -0.170     (0)  
   CaHSO4+         5.266e-11   3.933e-11   -10.278   -10.405    -0.127     (0)  
Cl            5.658e-01
   Cl-             5.658e-01   3.569e-01    -0.247    -0.448    -0.200     18.79
   MnCl+           1.092e-09   7.246e-10    -8.962    -9.140    -0.178     -2.79
   HCl             3.825e-10   7.407e-10    -9.417    -9.130     0.287     20.36
   MnCl2           9.664e-11   1.129e-10   -10.015    -9.947     0.067     85.89
   MnCl3-          1.673e-11   1.109e-11   -10.777   -10.955    -0.178     45.79
   FeCl+           6.668e-16   4.980e-16   -15.176   -15.303    -0.127     (0)  
   FeCl+2          1.519e-18   2.939e-19   -17.818   -18.532    -0.713     (0)  
   FeCl2+          7.064e-19   4.685e-19   -18.151   -18.329    -0.178     (0)  
   FeCl3           1.431e-20   1.672e-20   -19.844   -19.777     0.067     (0)  
F             7.583e-05
   F-              3.847e-05   2.342e-05    -4.415    -4.630    -0.215     -0.57
   MgF+            3.341e-05   2.162e-05    -4.476    -4.665    -0.189    -10.25
   NaF             3.942e-06   4.604e-06    -5.404    -5.337     0.067      7.26
   BF(OH)3-        5.414e-09   4.043e-09    -8.266    -8.393    -0.127     (0)  
   HF              1.812e-10   2.117e-10    -9.742    -9.674     0.067     12.50
   MnF+            1.218e-13   8.077e-14   -12.914   -13.093    -0.178     (0)  
   BF2(OH)2-       8.351e-14   6.236e-14   -13.078   -13.205    -0.127     (0)  
   HF2-            2.548e-14   1.903e-14   -13.594   -13.721    -0.127     22.81
   AlF2+           1.332e-14   8.997e-15   -13.875   -14.046    -0.170     (0)  
   AlF+2           3.684e-15   7.663e-16   -14.434   -15.116    -0.682     (0)  
   AlF3            2.272e-15   2.653e-15   -14.644   -14.576     0.067     (0)  
   AlF4-           3.825e-17   2.474e-17   -16.417   -16.607    -0.189     (0)  
   FeF+2           5.232e-18   1.013e-18   -17.281   -17.995    -0.713     (0)  
   FeF2+           1.424e-18   9.442e-19   -17.847   -18.025    -0.178     (0)  
   FeF+            3.171e-19   2.368e-19   -18.499   -18.626    -0.127     (0)  
   FeF3            3.001e-20   3.506e-20   -19.523   -19.455     0.067     (0)  
   BF3OH-          1.318e-20   9.843e-21   -19.880   -20.007    -0.127     (0)  
   BF4-            7.729e-27   5.772e-27   -26.112   -26.239    -0.127     (0)  
   SiF6-2          1.520e-34   2.941e-35   -33.818   -34.532    -0.713     45.55
Fe(2)         5.823e-15
   Fe+2            4.411e-15   1.011e-15   -14.355   -14.995    -0.640    -20.71
   FeCl+           6.668e-16   4.980e-16   -15.176   -15.303    -0.127     (0)  
   FeSO4           3.471e-16   4.054e-16   -15.460   -15.392     0.067     30.28
   FeCO3           1.739e-16   2.031e-16   -15.760   -15.692     0.067     (0)  
   FeHCO3+         1.457e-16   1.088e-16   -15.837   -15.963    -0.127     (0)  
   FeOH+           7.844e-17   5.203e-17   -16.105   -16.284    -0.178     (0)  
   FeF+            3.171e-19   2.368e-19   -18.499   -18.626    -0.127     (0)  
   FeHPO4          9.718e-20   1.135e-19   -19.012   -18.945     0.067     (0)  
   Fe(OH)2         6.170e-20   7.206e-20   -19.210   -19.142     0.067     (0)  
   FeH2PO4+        2.054e-21   1.387e-21   -20.687   -20.858    -0.170     (0)  
   Fe(OH)3-        6.569e-22   4.357e-22   -21.183   -21.361    -0.178     (0)  
   FeHSO4+         2.150e-23   1.605e-23   -22.668   -22.794    -0.127     (0)  
   Fe(HS)2         0.000e+00   0.000e+00  -227.214  -227.147     0.067     (0)  
   Fe(HS)3-        0.000e+00   0.000e+00  -335.534  -335.661    -0.127     (0)  
Fe(3)         3.712e-08
   Fe(OH)3         2.772e-08   3.237e-08    -7.557    -7.490     0.067     (0)  
   Fe(OH)4-        7.114e-09   4.804e-09    -8.148    -8.318    -0.170     (0)  
   Fe(OH)2+        2.287e-09   1.544e-09    -8.641    -8.811    -0.170     (0)  
   FeOH+2          1.481e-13   2.866e-14   -12.830   -13.543    -0.713     (0)  
   FeF+2           5.232e-18   1.013e-18   -17.281   -17.995    -0.713     (0)  
   FeCl+2          1.519e-18   2.939e-19   -17.818   -18.532    -0.713     (0)  
   FeF2+           1.424e-18   9.442e-19   -17.847   -18.025    -0.178     (0)  
   FeSO4+          1.017e-18   6.743e-19   -17.993   -18.171    -0.178     (0)  
   FeCl2+          7.064e-19   4.685e-19   -18.151   -18.329    -0.178     (0)  
   Fe+3            3.431e-19   2.727e-20   -18.465   -19.564    -1.100     (0)  
   Fe(SO4)2-       4.454e-20   3.326e-20   -19.351   -19.478    -0.127     (0)  
   FeF3            3.001e-20   3.506e-20   -19.523   -19.455     0.067     (0)  
   FeCl3           1.431e-20   1.672e-20   -19.844   -19.777     0.067     (0)  
   FeHPO4+         3.121e-22   2.070e-22   -21.506   -21.684    -0.178     (0)  
   FeH2PO4+2       9.660e-23   2.009e-23   -22.015   -22.697    -0.682     (0)  
   Fe2(OH)2+4      2.361e-24   2.210e-26   -23.627   -25.656    -2.029     (0)  
   FeHSO4+2        3.498e-26   1.088e-26   -25.456   -25.963    -0.507     (0)  
   Fe3(OH)4+5      1.054e-29   7.131e-33   -28.977   -32.147    -3.170     (0)  
H(0)          5.473e-37
   H2              2.736e-37   3.221e-37   -36.563   -36.492     0.071     14.99
K             1.058e-02
   K+              1.033e-02   6.440e-03    -1.986    -2.191    -0.205      9.66
   KSO4-           2.436e-04   2.209e-04    -3.613    -3.656    -0.042     35.15
   KHCO3           2.650e-06   3.095e-06    -5.577    -5.509     0.067     21.42
   KHPO4-          5.244e-10   3.541e-10    -9.280    -9.451    -0.170     39.62
Li            2.704e-05
   Li+             2.676e-05   1.852e-05    -4.573    -4.732    -0.160     -0.71
   LiSO4-          2.748e-07   1.822e-07    -6.561    -6.739    -0.178     (0)  
Mg            5.507e-02
   Mg+2            4.839e-02   1.397e-02    -1.315    -1.855    -0.540    -20.41
   MgSO4           6.044e-03   8.245e-03    -2.219    -2.084     0.135     -0.40
   MgHCO3+         2.796e-04   1.758e-04    -3.553    -3.755    -0.201      5.82
   Mg(SO4)2-2      2.164e-04   6.123e-05    -3.665    -4.213    -0.548     48.72
   MgCO3           9.556e-05   1.116e-04    -4.020    -3.952     0.067    -17.09
   MgF+            3.341e-05   2.162e-05    -4.476    -4.665    -0.189    -10.25
   MgOH+           1.171e-05   8.252e-06    -4.931    -5.083    -0.152     (0)  
   MgHPO4          2.500e-07   2.920e-07    -6.602    -6.535     0.067     (0)  
   MgPO4-          1.694e-07   1.144e-07    -6.771    -6.942    -0.170     (0)  
   MgH2PO4+        1.844e-09   1.246e-09    -8.734    -8.905    -0.170     (0)  
Mn(2)         3.773e-09
   Mn+2            2.175e-09   4.984e-10    -8.663    -9.302    -0.640    -16.36
   MnCl+           1.092e-09   7.246e-10    -8.962    -9.140    -0.178     -2.79
   MnCO3           2.839e-10   3.315e-10    -9.547    -9.479     0.067     (0)  
   MnCl2           9.664e-11   1.129e-10   -10.015    -9.947     0.067     85.89
   MnHCO3+         7.206e-11   4.780e-11   -10.142   -10.321    -0.178     (0)  
   MnSO4           3.348e-11   2.875e-11   -10.475   -10.541    -0.066     17.15
   MnCl3-          1.673e-11   1.109e-11   -10.777   -10.955    -0.178     45.79
   MnOH+           3.143e-12   2.085e-12   -11.503   -11.681    -0.178     (0)  
   MnF+            1.218e-13   8.077e-14   -12.914   -13.093    -0.178     (0)  
   Mn(OH)3-        5.133e-20   3.404e-20   -19.290   -19.468    -0.178     (0)  
   Mn(NO3)2        1.375e-20   1.606e-20   -19.862   -19.794     0.067     41.04
Mn(3)         5.474e-26
   Mn+3            5.474e-26   4.351e-27   -25.262   -26.361    -1.100     (0)  
N(-3)         1.724e-06
   NH4+            1.581e-06   8.888e-07    -5.801    -6.051    -0.250     18.48
   NH3             7.197e-08   8.406e-08    -7.143    -7.075     0.067     24.42
   NH4SO4-         7.072e-08   4.517e-08    -7.150    -7.345    -0.195     39.50
N(5)          4.847e-06
   NO3-            4.847e-06   2.845e-06    -5.314    -5.546    -0.231     30.29
   Mn(NO3)2        1.375e-20   1.606e-20   -19.862   -19.794     0.067     41.04
Na            4.855e-01
   Na+             4.759e-01   3.415e-01    -0.322    -0.467    -0.144     -0.50
   NaSO4-          9.406e-03   6.765e-03    -2.027    -2.170    -0.143     21.71
   NaHCO3          1.437e-04   1.816e-04    -3.843    -3.741     0.102     17.66
   NaF             3.942e-06   4.604e-06    -5.404    -5.337     0.067      7.26
   Na2SO4          9.818e-07   1.126e-06    -6.008    -5.948     0.060     47.96
   NaHPO4-         2.781e-08   1.878e-08    -7.556    -7.726    -0.170     81.47
O(0)          6.886e-20
   O2              3.443e-20   4.022e-20   -19.463   -19.396     0.067     30.40
P             6.548e-07
   MgHPO4          2.500e-07   2.920e-07    -6.602    -6.535     0.067     (0)  
   MgPO4-          1.694e-07   1.144e-07    -6.771    -6.942    -0.170     (0)  
   HPO4-2          1.457e-07   2.820e-08    -6.836    -7.550    -0.713      9.69
   CaHPO4          3.279e-08   3.829e-08    -7.484    -7.417     0.067     (0)  
   NaHPO4-         2.781e-08   1.878e-08    -7.556    -7.726    -0.170     81.47
   CaPO4-          2.226e-08   1.504e-08    -7.652    -7.823    -0.170     (0)  
   H2PO4-          4.053e-09   2.737e-09    -8.392    -8.563    -0.170     34.72
   MgH2PO4+        1.844e-09   1.246e-09    -8.734    -8.905    -0.170     (0)  
   KHPO4-          5.244e-10   3.541e-10    -9.280    -9.451    -0.170     39.62
   CaH2PO4+        2.568e-10   1.734e-10    -9.590    -9.761    -0.170     (0)  
   PO4-3           1.372e-10   2.110e-12    -9.863   -11.676    -1.813    -17.20
   H3PO4           2.079e-15   2.428e-15   -14.682   -14.615     0.067     47.41
   FeHPO4          9.718e-20   1.135e-19   -19.012   -18.945     0.067     (0)  
   FeH2PO4+        2.054e-21   1.387e-21   -20.687   -20.858    -0.170     (0)  
   FeHPO4+         3.121e-22   2.070e-22   -21.506   -21.684    -0.178     (0)  
   FeH2PO4+2       9.660e-23   2.009e-23   -22.015   -22.697    -0.682     (0)  
S(-2)         0.000e+00
   HS-             0.000e+00   0.000e+00  -110.335  -110.551    -0.215     21.35
   H2S             0.000e+00   0.000e+00  -111.897  -111.829     0.067     36.27
   S-2             0.000e+00   0.000e+00  -114.536  -115.249    -0.713     (0)  
   (H2S)2          0.000e+00   0.000e+00  -225.004  -224.937     0.067     30.09
   Fe(HS)2         0.000e+00   0.000e+00  -227.214  -227.147     0.067     (0)  
   Fe(HS)3-        0.000e+00   0.000e+00  -335.534  -335.661    -0.127     (0)  
S(6)          2.926e-02
   SO4-2           1.240e-02   2.255e-03    -1.907    -2.647    -0.740     17.12
   NaSO4-          9.406e-03   6.765e-03    -2.027    -2.170    -0.143     21.71
   MgSO4           6.044e-03   8.245e-03    -2.219    -2.084     0.135     -0.40
   CaSO4           7.269e-04   7.789e-04    -3.139    -3.109     0.030      7.22
   KSO4-           2.436e-04   2.209e-04    -3.613    -3.656    -0.042     35.15
   Mg(SO4)2-2      2.164e-04   6.123e-05    -3.665    -4.213    -0.548     48.72
   SrSO4           8.075e-06   9.431e-06    -5.093    -5.025     0.067     24.24
   Na2SO4          9.818e-07   1.126e-06    -6.008    -5.948     0.060     47.96
   LiSO4-          2.748e-07   1.822e-07    -6.561    -6.739    -0.178     (0)  
   NH4SO4-         7.072e-08   4.517e-08    -7.150    -7.345    -0.195     39.50
   HSO4-           1.769e-09   1.321e-09    -8.752    -8.879    -0.127     40.96
   CaHSO4+         5.266e-11   3.933e-11   -10.278   -10.405    -0.127     (0)  
   MnSO4           3.348e-11   2.875e-11   -10.475   -10.541    -0.066     17.15
   FeSO4           3.471e-16   4.054e-16   -15.460   -15.392     0.067     30.28
   AlSO4+          3.606e-17   2.333e-17   -16.443   -16.632    -0.189     (0)  
   Al(SO4)2-       2.571e-18   1.663e-18   -17.590   -17.779    -0.189     (0)  
   FeSO4+          1.017e-18   6.743e-19   -17.993   -18.171    -0.178     (0)  
   Fe(SO4)2-       4.454e-20   3.326e-20   -19.351   -19.478    -0.127     (0)  
   FeHSO4+         2.150e-23   1.605e-23   -22.668   -22.794    -0.127     (0)  
   AlHSO4+2        4.007e-26   1.246e-26   -25.397   -25.904    -0.507     (0)  
   FeHSO4+2        3.498e-26   1.088e-26   -25.456   -25.963    -0.507     (0)  
Si            7.383e-05
   H4SiO4          7.062e-05   8.248e-05    -4.151    -4.084     0.067     52.08
   H3SiO4-         3.210e-06   2.018e-06    -5.494    -5.695    -0.201     28.72
   H2SiO4-2        1.095e-10   2.279e-11    -9.960   -10.642    -0.682     (0)  
   SiF6-2          1.520e-34   2.941e-35   -33.818   -34.532    -0.713     45.55
Sr            9.629e-05
   Sr+2            8.759e-05   2.145e-05    -4.058    -4.669    -0.611    -16.43
   SrSO4           8.075e-06   9.431e-06    -5.093    -5.025     0.067     24.24
   SrHCO3+         5.228e-07   3.531e-07    -6.282    -6.452    -0.170     (0)  
   SrCO3           9.819e-08   1.147e-07    -7.008    -6.941     0.067    -14.13
   SrOH+           2.699e-10   1.790e-10    -9.569    -9.747    -0.178     (0)  
U             1.437e-08
   UO2(CO3)3-4     1.264e-08   1.183e-10    -7.898    -9.927    -2.029     (0)  
   UO2(CO3)2-2     1.726e-09   5.370e-10    -8.763    -9.270    -0.507     (0)  
   UO2CO3          6.708e-12   7.835e-12   -11.173   -11.106     0.067     (0)  
   UO2OH+          2.906e-14   2.170e-14   -13.537   -13.663    -0.127     (0)  
   UO2+2           2.596e-16   8.074e-17   -15.586   -16.093    -0.507     (0)  
   (UO2)2(OH)2+2   1.313e-21   4.084e-22   -20.882   -21.389    -0.507     (0)  
   UO2+            2.333e-22   1.742e-22   -21.632   -21.759    -0.127     (0)  
   (UO2)3(OH)5+    1.838e-23   1.373e-23   -22.736   -22.862    -0.127     (0)  
   U(OH)5-         2.491e-29   1.860e-29   -28.604   -28.730    -0.127     (0)  
   U(OH)4          3.977e-33   4.645e-33   -32.400   -32.333     0.067     (0)  
   U+4             0.000e+00   0.000e+00   -54.612   -56.641    -2.029     (0)  

------------------------------Saturation indices-------------------------------

  Phase               SI** log IAP   log K(298 K,   1 atm)

  Al(OH)3(a)       -3.65      7.15   10.80  Al(OH)3
  Albite           -1.95    -19.95  -18.00  NaAlSi3O8
  Alunite          -9.27    -10.67   -1.40  KAl3(SO4)2(OH)6
  Anhydrite        -0.94     -5.25   -4.31  CaSO4
  Anorthite        -5.60    -25.31  -19.71  CaAl2Si2O8
  Aragonite         0.65     -7.68   -8.34  CaCO3
  Arcanite         -5.15     -7.03   -1.88  K2SO4
  Barite           -0.12    -10.01   -9.89  BaSO4
  Ca-Montmorillonite  -3.75    -48.77  -45.03  Ca0.165Al2.33Si3.67O10(OH)2
  Calcite           0.76     -7.68   -8.45  CaCO3
  Celestite        -0.66     -7.32   -6.66  SrSO4
  Chalcedony       -0.52     -4.07   -3.55  SiO2
  Chlorite(14A)     6.59     74.97   68.38  Mg5Al2Si3O10(OH)8
  Chrysotile        3.38     35.58   32.20  Mg3Si2O5(OH)4
  CO2(g)           -3.36     -4.83   -1.47  CO2
  Dolomite          2.47    -14.62  -17.08  CaMg(CO3)2
  Epsomite         -2.82     -4.56   -1.74  MgSO4:7H2O
  Fe(OH)3(a)        0.18      5.07    4.89  Fe(OH)3
  FeS(ppt)       -113.41   -117.33   -3.92  FeS
  Fluorite         -1.27    -11.87  -10.60  CaF2
  Gibbsite         -0.96      7.15    8.11  Al(OH)3
  Goethite          6.08      5.08   -1.00  FeOOH
  Gypsum           -0.72     -5.27   -4.55  CaSO4:2H2O
  H2(g)           -33.39    -36.49   -3.10  H2
  H2O(g)           -1.51     -0.01    1.50  H2O
  H2S(g)         -110.83   -118.77   -7.94  H2S
  Halite           -2.48     -0.91    1.57  NaCl
  Hausmannite      -6.31     54.72   61.03  Mn3O4
  Hematite         14.17     10.17   -4.01  Fe2O3
  Hexahydrite      -2.99     -4.55   -1.57  MgSO4:6H2O
  Hydroxyapatite    0.61     -2.81   -3.42  Ca5(PO4)3OH
  Illite           -2.37    -42.64  -40.27  K0.6Mg0.25Al2.3Si3.5O10(OH)2
  Jarosite-K       -7.70    -16.91   -9.21  KFe3(SO4)2(OH)6
  K-feldspar       -1.11    -21.68  -20.57  KAlSi3O8
  K-mica            2.60     15.30   12.70  KAl3Si3O10(OH)2
  Kaolinite        -1.26      6.17    7.43  Al2Si2O5(OH)4
  Kieserite        -3.35     -4.51   -1.16  MgSO4:H2O
  Mackinawite    -112.68   -117.33   -4.65  FeS
  Manganite        -1.55     23.79   25.34  MnOOH
  Melanterite     -15.49    -17.70   -2.21  FeSO4:7H2O
  Mirabilite       -2.96     -3.67   -0.71  Na2SO4:10H2O
  NH3(g)           -8.87     -7.08    1.80  NH3
  O2(g)           -16.50    -19.40   -2.89  O2
  Pyrite         -184.28   -202.75  -18.48  FeS2
  Pyrochroite      -8.08      7.12   15.20  Mn(OH)2
  Pyrolusite       -0.93     40.45   41.38  MnO2:H2O
  Quartz           -0.09     -4.07   -3.98  SiO2
  Rhodochrosite    -3.25    -14.38  -11.13  MnCO3
  Sepiolite         1.16     16.92   15.76  Mg2Si3O7.5OH:3H2O
  Sepiolite(d)     -1.74     16.92   18.66  Mg2Si3O7.5OH:3H2O
  Siderite         -9.18    -20.07  -10.89  FeCO3
  SiO2(a)          -1.35     -4.07   -2.71  SiO2
  Strontianite     -0.48     -9.75   -9.27  SrCO3
  Sulfur          -83.37    -78.49    4.88  S
  Sylvite          -3.54     -2.64    0.90  KCl
  Talc              6.06     27.45   21.40  Mg3Si4O10(OH)2
  Thenardite       -4.23     -3.58    0.65  Na2SO4
  Uraninite       -20.29    -23.78   -3.49  UO2
  Vivianite       -32.41    -68.41  -36.00  Fe3(PO4)2:8H2O
  Witherite        -3.88    -12.44   -8.56  BaCO3

**For a gas, SI = log10(fugacity). Fugacity = pressure * phi / 1 atm.
  For ideal gases, phi = 1.

------------------
End of simulation.
------------------

------------------------------------
Reading input data for simulation 2.
------------------------------------

	SOLUTION 1  PURE WATER                                                                      
	         units   mol/kgs
	            pH    7.0000
	            pe    4.0000
	       density    1.0000
	          temp   25.0000
	PURE_PHASES
		CO2(g)		-2.000   100.000
		Calcite		 0.000   100.000
	SAVE solution   1
	END
-------------------------------------------
Beginning of initial solution calculations.
-------------------------------------------

Initial solution 1.	PURE WATER                                                                      

-----------------------------Solution composition------------------------------

	Elements           Molality       Moles

	Pure water     

----------------------------Description of solution----------------------------

                                       pH  =   7.000    
                                       pe  =   4.000    
      Specific Conductance (µS/cm,  25°C)  = 0
                          Density (g/cm³)  =   0.99704
                               Volume (L)  =   1.00297
                        Viscosity (mPa s)  =   0.89002
                        Activity of water  =   1.000
                 Ionic strength (mol/kgw)  =   1.007e-07
                       Mass of water (kg)  =   1.000e+00
                 Total alkalinity (eq/kg)  =   1.217e-09
                         Temperature (°C)  =  25.00
                  Electrical balance (eq)  =  -1.217e-09
 Percent error, 100*(Cat-|An|)/(Cat+|An|)  =  -0.60
                               Iterations  =   0
                                  Total H  = 1.110124e+02
                                  Total O  = 5.550622e+01

----------------------------Distribution of species----------------------------

                                               Log       Log       Log    mole V
   Species          Molality    Activity  Molality  Activity     Gamma   cm³/mol

   OH-             1.013e-07   1.012e-07    -6.995    -6.995    -0.000     -4.14
   H+              1.001e-07   1.000e-07    -7.000    -7.000    -0.000      0.00
   H2O             5.551e+01   1.000e+00     1.744     0.000     0.000     18.07
H(0)          1.416e-25
   H2              7.079e-26   7.079e-26   -25.150   -25.150     0.000     14.99
O(0)          0.000e+00
   O2              0.000e+00   0.000e+00   -42.063   -42.063     0.000     30.40

------------------------------Saturation indices-------------------------------

  Phase               SI** log IAP   log K(298 K,   1 atm)

  H2(g)           -22.05    -25.15   -3.10  H2
  H2O(g)           -1.50      0.00    1.50  H2O
  O2(g)           -39.17    -42.06   -2.89  O2

**For a gas, SI = log10(fugacity). Fugacity = pressure * phi / 1 atm.
  For ideal gases, phi = 1.

-----------------------------------------
Beginning of batch-reaction calculations.
-----------------------------------------

Reaction step 1.

Using solution 1.	PURE WATER                                                                      
Using pure phase assemblage 1.	

-------------------------------Phase assemblage--------------------------------

                                                      Moles in assemblage
Phase               SI  log IAP  log K(T, P)   Initial       Final       Delta

CO2(g)           -2.00    -3.47     -1.47    1.000e+02   1.000e+02  -1.986e-03
Calcite           0.00    -8.45     -8.45    1.000e+02   1.000e+02  -1.656e-03

-----------------------------Solution composition------------------------------

	Elements           Molality       Moles

	C                 3.642e-03   3.642e-03
	Ca                1.656e-03   1.656e-03

----------------------------Description of solution----------------------------

                                       pH  =   7.306      Charge balance
                                       pe  =  -1.584      Adjusted to redox equilibrium
      Specific Conductance (µS/cm,  25°C)  = 314
                          Density (g/cm³)  =   0.99726
                               Volume (L)  =   1.00300
                        Viscosity (mPa s)  =   0.89200
                        Activity of water  =   1.000
                 Ionic strength (mol/kgw)  =   4.954e-03
                       Mass of water (kg)  =   1.000e+00
                 Total alkalinity (eq/kg)  =   3.312e-03
                       Total CO2 (mol/kg)  =   3.642e-03
                         Temperature (°C)  =  25.00
                  Electrical balance (eq)  =  -1.237e-09
 Percent error, 100*(Cat-|An|)/(Cat+|An|)  =  -0.00
                               Iterations  =  16
                                  Total H  = 1.110124e+02
                                  Total O  = 5.551516e+01

----------------------------Distribution of species----------------------------

                                               Log       Log       Log    mole V
   Species          Molality    Activity  Molality  Activity     Gamma   cm³/mol

   OH-             2.209e-07   2.046e-07    -6.656    -6.689    -0.033     -4.07
   H+              5.297e-08   4.946e-08    -7.276    -7.306    -0.030      0.00
   H2O             5.551e+01   9.999e-01     1.744    -0.000     0.000     18.07
C(-4)         1.398e-25
   CH4             1.398e-25   1.400e-25   -24.854   -24.854     0.000     35.46
C(4)          3.642e-03
   HCO3-           3.292e-03   3.059e-03    -2.483    -2.514    -0.032     24.63
   CO2             3.400e-04   3.403e-04    -3.469    -3.468     0.000     34.79
   CaCO3           5.982e-06   5.989e-06    -5.223    -5.223     0.000    -14.60
   CO3-2           3.891e-06   2.900e-06    -5.410    -5.538    -0.128     -4.49
   (CO2)2          1.881e-09   1.882e-09    -8.726    -8.725     0.000     68.75
   CaHCO3+         3.545e-10   3.297e-10    -9.450    -9.482    -0.032      9.70
Ca            1.656e-03
   Ca+2            1.650e-03   1.229e-03    -2.782    -2.910    -0.128    -18.02
   CaCO3           5.982e-06   5.989e-06    -5.223    -5.223     0.000    -14.60
   CaOH+           4.447e-09   4.124e-09    -8.352    -8.385    -0.033     (0)  
   CaHCO3+         3.545e-10   3.297e-10    -9.450    -9.482    -0.032      9.70
H(0)          5.087e-15
   H2              2.544e-15   2.547e-15   -14.595   -14.594     0.001     14.99
O(0)          0.000e+00
   O2              0.000e+00   0.000e+00   -63.175   -63.175     0.000     30.40

------------------------------Saturation indices-------------------------------

  Phase               SI** log IAP   log K(298 K,   1 atm)

  Aragonite        -0.11     -8.45   -8.34  CaCO3
  Calcite           0.00     -8.45   -8.45  CaCO3
  CH4(g)          -22.05    -24.85   -2.80  CH4
  CO2(g)           -2.00     -3.47   -1.47  CO2	 Pressure   0.0 atm, phi 1.000
  H2(g)           -11.49    -14.59   -3.10  H2
  H2O(g)           -1.50     -0.00    1.50  H2O
  O2(g)           -60.28    -63.17   -2.89  O2

**For a gas, SI = log10(fugacity). Fugacity = pressure * phi / 1 atm.
  For ideal gases, phi = 1.

------------------
End of simulation.
------------------

------------------------------------
Reading input data for simulation 3.
------------------------------------

	SOLUTION 2  SEA WATER                                                                       
	         units       ppm
	            pH    8.2200
	            pe    8.4510
	       density    1.0230
	          temp   25.0000
	    Ca          4.123000E+02
	    Mg          1.291800E+03
	    Na          1.076800E+04
	    K           3.991000E+02
	    Sr          8.100000E+00
	    Si          6.850000E+00 as H4SiO4
	    Cl          1.935300E+04 charge
	    Alkalinity  1.417000E+02 as HCO3
	    S           2.712000E+03
	    B           4.500000E+00
	MIX 1
		1      0.70000
		2      0.30000
	USE pure_phases none
	SAVE solution   1
	END
-------------------------------------------
Beginning of initial solution calculations.
-------------------------------------------

Initial solution 2.	SEA WATER                                                                       

-----------------------------Solution composition------------------------------

	Elements           Molality       Moles

	Alkalinity        2.407e-03   2.407e-03
	B                 4.314e-04   4.314e-04
	Ca                1.066e-02   1.066e-02
	Cl                5.667e-01   5.667e-01  Charge balance
	K                 1.058e-02   1.058e-02
	Mg                5.507e-02   5.507e-02
	Na                4.854e-01   4.854e-01
	S                 2.926e-02   2.926e-02
	Si                7.386e-05   7.386e-05
	Sr                9.581e-05   9.581e-05

----------------------------Description of solution----------------------------

                                       pH  =   8.220    
                                       pe  =   8.451    
      Specific Conductance (µS/cm,  25°C)  = 52968
                          Density (g/cm³)  =   1.02329
                               Volume (L)  =   1.01282
                        Viscosity (mPa s)  =   0.95673
                        Activity of water  =   0.981
                 Ionic strength (mol/kgw)  =   6.744e-01
                       Mass of water (kg)  =   1.000e+00
                    Total carbon (mol/kg)  =   2.180e-03
                       Total CO2 (mol/kg)  =   2.180e-03
                         Temperature (°C)  =  25.00
                  Electrical balance (eq)  =  -6.629e-13
 Percent error, 100*(Cat-|An|)/(Cat+|An|)  =  -0.00
                               Iterations  =   9
                                  Total H  = 1.110160e+02
                                  Total O  = 5.563138e+01

----------------------------Distribution of species----------------------------

                                               Log       Log       Log    mole V
   Species          Molality    Activity  Molality  Activity     Gamma   cm³/mol

   OH-             2.705e-06   1.647e-06    -5.568    -5.783    -0.215     -2.63
   H+              7.983e-09   6.026e-09    -8.098    -8.220    -0.122      0.00
   H2O             5.551e+01   9.806e-01     1.744    -0.009     0.000     18.07
B             4.314e-04
   H3BO3           3.754e-04   4.384e-04    -3.426    -3.358     0.067     39.23
   H2BO3-          5.606e-05   4.187e-05    -4.251    -4.378    -0.127     (0)  
C(4)          2.180e-03
   HCO3-           1.575e-03   1.076e-03    -2.803    -2.968    -0.165     28.02
   MgHCO3+         2.798e-04   1.760e-04    -3.553    -3.755    -0.201      5.82
   NaHCO3          1.437e-04   1.817e-04    -3.843    -3.741     0.102     17.66
   MgCO3           9.564e-05   1.117e-04    -4.019    -3.952     0.067    -17.09
   CO3-2           4.027e-05   8.377e-06    -4.395    -5.077    -0.682     -0.67
   CaCO3           2.984e-05   3.485e-05    -4.525    -4.458     0.067    -14.60
   CO2             1.342e-05   1.487e-05    -4.872    -4.828     0.045     34.79
   KHCO3           2.651e-06   3.096e-06    -5.577    -5.509     0.067     21.42
   SrHCO3+         5.204e-07   3.514e-07    -6.284    -6.454    -0.170     (0)  
   SrCO3           9.772e-08   1.141e-07    -7.010    -6.943     0.067    -14.13
   CaHCO3+         3.377e-10   2.337e-10    -9.471    -9.631    -0.160      9.96
   (CO2)2          3.245e-12   3.595e-12   -11.489   -11.444     0.045     68.75
Ca            1.066e-02
   Ca+2            9.904e-03   2.476e-03    -2.004    -2.606    -0.602    -16.69
   CaSO4           7.267e-04   7.787e-04    -3.139    -3.109     0.030      7.22
   CaCO3           2.984e-05   3.485e-05    -4.525    -4.458     0.067    -14.60
   CaOH+           8.956e-08   6.688e-08    -7.048    -7.175    -0.127     (0)  
   CaHCO3+         3.377e-10   2.337e-10    -9.471    -9.631    -0.160      9.96
   CaHSO4+         5.265e-11   3.932e-11   -10.279   -10.405    -0.127     (0)  
Cl            5.667e-01
   Cl-             5.667e-01   3.575e-01    -0.247    -0.447    -0.200     18.79
   HCl             3.832e-10   7.420e-10    -9.417    -9.130     0.287     20.36
H(0)          5.473e-37
   H2              2.736e-37   3.221e-37   -36.563   -36.492     0.071     14.99
K             1.058e-02
   K+              1.033e-02   6.440e-03    -1.986    -2.191    -0.205      9.66
   KSO4-           2.435e-04   2.209e-04    -3.613    -3.656    -0.042     35.15
   KHCO3           2.651e-06   3.096e-06    -5.577    -5.509     0.067     21.42
Mg            5.507e-02
   Mg+2            4.842e-02   1.397e-02    -1.315    -1.855    -0.540    -20.41
   MgSO4           6.046e-03   8.248e-03    -2.218    -2.084     0.135     -0.40
   MgHCO3+         2.798e-04   1.760e-04    -3.553    -3.755    -0.201      5.82
   Mg(SO4)2-2      2.165e-04   6.125e-05    -3.665    -4.213    -0.548     48.72
   MgCO3           9.564e-05   1.117e-04    -4.019    -3.952     0.067    -17.09
   MgOH+           1.172e-05   8.257e-06    -4.931    -5.083    -0.152     (0)  
Na            4.854e-01
   Na+             4.759e-01   3.415e-01    -0.323    -0.467    -0.144     -0.50
   NaSO4-          9.404e-03   6.763e-03    -2.027    -2.170    -0.143     21.71
   NaHCO3          1.437e-04   1.817e-04    -3.843    -3.741     0.102     17.66
   Na2SO4          9.816e-07   1.126e-06    -6.008    -5.948     0.060     47.96
O(0)          6.886e-20
   O2              3.443e-20   4.022e-20   -19.463   -19.396     0.067     30.40
S(-2)         0.000e+00
   HS-             0.000e+00   0.000e+00  -110.335  -110.551    -0.215     21.35
   H2S             0.000e+00   0.000e+00  -111.897  -111.829     0.067     36.27
   S-2             0.000e+00   0.000e+00  -114.536  -115.249    -0.713     (0)  
   (H2S)2          0.000e+00   0.000e+00  -225.004  -224.937     0.067     30.09
S(6)          2.926e-02
   SO4-2           1.240e-02   2.254e-03    -1.907    -2.647    -0.740     17.12
   NaSO4-          9.404e-03   6.763e-03    -2.027    -2.170    -0.143     21.71
   MgSO4           6.046e-03   8.248e-03    -2.218    -2.084     0.135     -0.40
   CaSO4           7.267e-04   7.787e-04    -3.139    -3.109     0.030      7.22
   KSO4-           2.435e-04   2.209e-04    -3.613    -3.656    -0.042     35.15
   Mg(SO4)2-2      2.165e-04   6.125e-05    -3.665    -4.213    -0.548     48.72
   SrSO4           8.033e-06   9.383e-06    -5.095    -5.028     0.067     24.24
   Na2SO4          9.816e-07   1.126e-06    -6.008    -5.948     0.060     47.96
   HSO4-           1.768e-09   1.321e-09    -8.752    -8.879    -0.127     40.96
   CaHSO4+         5.265e-11   3.932e-11   -10.279   -10.405    -0.127     (0)  
Si            7.386e-05
   H4SiO4          7.065e-05   8.252e-05    -4.151    -4.083     0.067     52.08
   H3SiO4-         3.211e-06   2.019e-06    -5.493    -5.695    -0.201     28.72
   H2SiO4-2        1.096e-10   2.280e-11    -9.960   -10.642    -0.682     (0)  
Sr            9.581e-05
   Sr+2            8.716e-05   2.135e-05    -4.060    -4.671    -0.611    -16.43
   SrSO4           8.033e-06   9.383e-06    -5.095    -5.028     0.067     24.24
   SrHCO3+         5.204e-07   3.514e-07    -6.284    -6.454    -0.170     (0)  
   SrCO3           9.772e-08   1.141e-07    -7.010    -6.943     0.067    -14.13
   SrOH+           2.686e-10   1.781e-10    -9.571    -9.749    -0.178     (0)  

------------------------------Saturation indices-------------------------------

  Phase               SI** log IAP   log K(298 K,   1 atm)

  Anhydrite        -0.94     -5.25   -4.31  CaSO4
  Aragonite         0.65     -7.68   -8.34  CaCO3
  Arcanite         -5.15     -7.03   -1.88  K2SO4
  Calcite           0.76     -7.68   -8.45  CaCO3
  Celestite        -0.66     -7.32   -6.66  SrSO4
  Chalcedony       -0.52     -4.07   -3.55  SiO2
  Chrysotile        3.38     35.58   32.20  Mg3Si2O5(OH)4
  CO2(g)           -3.36     -4.83   -1.47  CO2
  Dolomite          2.47    -14.61  -17.08  CaMg(CO3)2
  Epsomite         -2.82     -4.56   -1.74  MgSO4:7H2O
  Gypsum           -0.72     -5.27   -4.55  CaSO4:2H2O
  H2(g)           -33.39    -36.49   -3.10  H2
  H2O(g)           -1.51     -0.01    1.50  H2O
  H2S(g)         -110.83   -118.77   -7.94  H2S
  Halite           -2.48     -0.91    1.57  NaCl
  Hexahydrite      -2.99     -4.55   -1.57  MgSO4:6H2O
  Kieserite        -3.35     -4.51   -1.16  MgSO4:H2O
  Mirabilite       -2.96     -3.67   -0.71  Na2SO4:10H2O
  O2(g)           -16.50    -19.40   -2.89  O2
  Quartz           -0.09     -4.07   -3.98  SiO2
  Sepiolite         1.16     16.92   15.76  Mg2Si3O7.5OH:3H2O
  Sepiolite(d)     -1.74     16.92   18.66  Mg2Si3O7.5OH:3H2O
  SiO2(a)          -1.35     -4.07   -2.71  SiO2
  Strontianite     -0.48     -9.75   -9.27  SrCO3
  Sulfur          -83.37    -78.49    4.88  S
  Sylvite          -3.54     -2.64    0.90  KCl
  Talc              6.06     27.46   21.40  Mg3Si4O10(OH)2
  Thenardite       -4.23     -3.58    0.65  Na2SO4

**For a gas, SI = log10(fugacity). Fugacity = pressure * phi / 1 atm.
  For ideal gases, phi = 1.

-----------------------------------------
Beginning of batch-reaction calculations.
-----------------------------------------

Reaction step 1.

Using mix 1.	

Mixture 1.	

	  7.000e-01 Solution 1	Solution after simulation 2.                           
	  3.000e-01 Solution 2	SEA WATER                                                                       

-----------------------------Solution composition------------------------------

	Elements           Molality       Moles

	B                 1.294e-04   1.294e-04
	C                 3.204e-03   3.204e-03
	Ca                4.358e-03   4.358e-03
	Cl                1.700e-01   1.700e-01
	K                 3.173e-03   3.173e-03
	Mg                1.652e-02   1.652e-02
	Na                1.456e-01   1.456e-01
	S                 8.778e-03   8.777e-03
	Si                2.216e-05   2.216e-05
	Sr                2.874e-05   2.874e-05

----------------------------Description of solution----------------------------

                                       pH  =   7.373      Charge balance
                                       pe  =  10.546      Adjusted to redox equilibrium
      Specific Conductance (µS/cm,  25°C)  = 18365
                          Density (g/cm³)  =   1.00527
                               Volume (L)  =   1.00580
                        Viscosity (mPa s)  =   0.91117
                        Activity of water  =   0.994
                 Ionic strength (mol/kgw)  =   2.083e-01
                       Mass of water (kg)  =   1.000e+00
                 Total alkalinity (eq/kg)  =   3.040e-03
                       Total CO2 (mol/kg)  =   3.204e-03
                         Temperature (°C)  =  25.00
                  Electrical balance (eq)  =  -8.659e-10
 Percent error, 100*(Cat-|An|)/(Cat+|An|)  =  -0.00
                               Iterations  =  14
                                  Total H  = 1.110135e+02
                                  Total O  = 5.555002e+01

----------------------------Distribution of species----------------------------

                                               Log       Log       Log    mole V
   Species          Molality    Activity  Molality  Activity     Gamma   cm³/mol

   OH-             3.376e-07   2.376e-07    -6.472    -6.624    -0.153     -3.48
   H+              5.321e-08   4.236e-08    -7.274    -7.373    -0.099      0.00
   H2O             5.551e+01   9.941e-01     1.744    -0.003     0.000     18.07
B             1.294e-04
   H3BO3           1.270e-04   1.332e-04    -3.896    -3.875     0.021     39.23
   H2BO3-          2.430e-06   1.810e-06    -5.614    -5.742    -0.128     (0)  
C(-4)         0.000e+00
   CH4             0.000e+00   0.000e+00  -122.687  -122.667     0.021     35.46
C(4)          3.204e-03
   HCO3-           2.725e-03   2.034e-03    -2.565    -2.692    -0.127     25.98
   CO2             1.888e-04   1.948e-04    -3.724    -3.710     0.014     34.79
   MgHCO3+         1.655e-04   1.184e-04    -3.781    -3.927    -0.146      5.72
   NaHCO3          1.002e-04   1.078e-04    -3.999    -3.968     0.031     17.66
   MgCO3           1.019e-05   1.069e-05    -4.992    -4.971     0.021    -17.09
   CO3-2           7.363e-06   2.252e-06    -5.133    -5.647    -0.515     -2.56
   CaCO3           4.699e-06   4.930e-06    -5.328    -5.307     0.021    -14.60
   KHCO3           1.910e-06   2.004e-06    -5.719    -5.698     0.021     21.42
   SrHCO3+         3.500e-07   2.603e-07    -6.456    -6.585    -0.129     (0)  
   SrCO3           1.146e-08   1.203e-08    -7.941    -7.920     0.021    -14.13
   (CO2)2          5.978e-10   6.171e-10    -9.223    -9.210     0.014     68.75
   CaHCO3+         3.081e-10   2.324e-10    -9.511    -9.634    -0.123      9.88
Ca            4.358e-03
   Ca+2            4.100e-03   1.303e-03    -2.387    -2.885    -0.498    -17.20
   CaSO4           2.527e-04   2.582e-04    -3.597    -3.588     0.009      7.22
   CaCO3           4.699e-06   4.930e-06    -5.328    -5.307     0.021    -14.60
   CaOH+           6.815e-09   5.076e-09    -8.167    -8.294    -0.128     (0)  
   CaHCO3+         3.081e-10   2.324e-10    -9.511    -9.634    -0.123      9.88
   CaHSO4+         1.230e-10   9.163e-11    -9.910   -10.038    -0.128     (0)  
Cl            1.700e-01
   Cl-             1.700e-01   1.211e-01    -0.769    -0.917    -0.147     18.47
   HCl             1.441e-09   1.768e-09    -8.841    -8.753     0.089     20.36
H(0)          1.956e-39
   H2              9.778e-40   1.028e-39   -39.010   -38.988     0.022     14.99
K             3.173e-03
   K+              3.113e-03   2.206e-03    -2.507    -2.656    -0.150      9.35
   KSO4-           5.852e-05   4.767e-05    -4.233    -4.322    -0.089     28.77
   KHCO3           1.910e-06   2.004e-06    -5.719    -5.698     0.021     21.42
Mg            1.652e-02
   Mg+2            1.464e-02   4.976e-03    -1.834    -2.303    -0.469    -20.91
   MgSO4           1.681e-03   1.850e-03    -2.774    -2.733     0.042     -0.40
   MgHCO3+         1.655e-04   1.184e-04    -3.781    -3.927    -0.146      5.72
   Mg(SO4)2-2      2.409e-05   8.655e-06    -4.618    -5.063    -0.445     45.20
   MgCO3           1.019e-05   1.069e-05    -4.992    -4.971     0.021    -17.09
   MgOH+           5.563e-07   4.240e-07    -6.255    -6.373    -0.118     (0)  
Na            1.456e-01
   Na+             1.437e-01   1.072e-01    -0.842    -0.970    -0.127     -0.92
   NaSO4-          1.805e-03   1.337e-03    -2.743    -2.874    -0.130     19.24
   NaHCO3          1.002e-04   1.078e-04    -3.999    -3.968     0.031     17.66
   Na2SO4          6.699e-08   6.990e-08    -7.174    -7.156     0.018     47.96
O(0)          7.732e-15
   O2              3.866e-15   4.056e-15   -14.413   -14.392     0.021     30.40
S(-2)         0.000e+00
   HS-             0.000e+00   0.000e+00  -119.759  -119.912    -0.153     21.00
   H2S             0.000e+00   0.000e+00  -120.364  -120.343     0.021     36.27
   S-2             0.000e+00   0.000e+00  -124.925  -125.457    -0.532     (0)  
   (H2S)2          0.000e+00   0.000e+00  -241.986  -241.965     0.021     30.09
S(6)          8.778e-03
   SO4-2           4.930e-03   1.420e-03    -2.307    -2.848    -0.540     15.57
   NaSO4-          1.805e-03   1.337e-03    -2.743    -2.874    -0.130     19.24
   MgSO4           1.681e-03   1.850e-03    -2.774    -2.733     0.042     -0.40
   CaSO4           2.527e-04   2.582e-04    -3.597    -3.588     0.009      7.22
   KSO4-           5.852e-05   4.767e-05    -4.233    -4.322    -0.089     28.77
   Mg(SO4)2-2      2.409e-05   8.655e-06    -4.618    -5.063    -0.445     45.20
   SrSO4           2.208e-06   2.317e-06    -5.656    -5.635     0.021     24.24
   Na2SO4          6.699e-08   6.990e-08    -7.174    -7.156     0.018     47.96
   HSO4-           7.852e-09   5.848e-09    -8.105    -8.233    -0.128     40.66
   CaHSO4+         1.230e-10   9.163e-11    -9.910   -10.038    -0.128     (0)  
Si            2.216e-05
   H4SiO4          2.205e-05   2.313e-05    -4.657    -4.636     0.021     52.08
   H3SiO4-         1.126e-07   8.052e-08    -6.949    -7.094    -0.146     28.37
   H2SiO4-2        4.228e-13   1.293e-13   -12.374   -12.888    -0.515     (0)  
Sr            2.874e-05
   Sr+2            2.617e-05   8.366e-06    -4.582    -5.077    -0.495    -17.01
   SrSO4           2.208e-06   2.317e-06    -5.656    -5.635     0.021     24.24
   SrHCO3+         3.500e-07   2.603e-07    -6.456    -6.585    -0.129     (0)  
   SrCO3           1.146e-08   1.203e-08    -7.941    -7.920     0.021    -14.13
   SrOH+           1.368e-11   1.007e-11   -10.864   -10.997    -0.133     (0)  

------------------------------Saturation indices-------------------------------

  Phase               SI** log IAP   log K(298 K,   1 atm)

  Anhydrite        -1.42     -5.73   -4.31  CaSO4
  Aragonite        -0.20     -8.53   -8.34  CaCO3
  Arcanite         -6.28     -8.16   -1.88  K2SO4
  Calcite          -0.08     -8.53   -8.45  CaCO3
  Celestite        -1.27     -7.93   -6.66  SrSO4
  CH4(g)         -119.86   -122.67   -2.80  CH4
  Chalcedony       -1.08     -4.63   -3.55  SiO2
  Chrysotile       -4.15     28.05   32.20  Mg3Si2O5(OH)4
  CO2(g)           -2.24     -3.71   -1.47  CO2
  Dolomite          0.60    -16.48  -17.08  CaMg(CO3)2
  Epsomite         -3.43     -5.17   -1.74  MgSO4:7H2O
  Gypsum           -1.19     -5.74   -4.55  CaSO4:2H2O
  H2(g)           -35.89    -38.99   -3.10  H2
  H2O(g)           -1.51     -0.00    1.50  H2O
  H2S(g)         -119.35   -127.29   -7.94  H2S
  Halite           -3.46     -1.89    1.57  NaCl
  Hexahydrite      -3.60     -5.17   -1.57  MgSO4:6H2O
  Kieserite        -3.99     -5.15   -1.16  MgSO4:H2O
  Mirabilite       -4.11     -4.81   -0.71  Na2SO4:10H2O
  O2(g)           -11.50    -14.39   -2.89  O2
  Quartz           -0.65     -4.63   -3.98  SiO2
  Sepiolite        -4.78     10.98   15.76  Mg2Si3O7.5OH:3H2O
  Sepiolite(d)     -7.68     10.98   18.66  Mg2Si3O7.5OH:3H2O
  SiO2(a)          -1.92     -4.63   -2.71  SiO2
  Strontianite     -1.45    -10.72   -9.27  SrCO3
  Sulfur          -89.39    -84.51    4.88  S
  Sylvite          -4.47     -3.57    0.90  KCl
  Talc             -2.60     18.80   21.40  Mg3Si4O10(OH)2
  Thenardite       -5.44     -4.79    0.65  Na2SO4

**For a gas, SI = log10(fugacity). Fugacity = pressure * phi / 1 atm.
  For ideal gases, phi = 1.

------------------
End of simulation.
------------------

------------------------------------
Reading input data for simulation 4.
------------------------------------

	PURE_PHASES 1
		Calcite          0.000   100.000
		Dolomite         0.000   100.000
	USE solution 1
	END
-----------------------------------------
Beginning of batch-reaction calculations.
-----------------------------------------

Reaction step 1.

Using solution 1.	Solution after simulation 3.
Using pure phase assemblage 1.	

-------------------------------Phase assemblage--------------------------------

                                                      Moles in assemblage
Phase               SI  log IAP  log K(T, P)   Initial       Final       Delta

Calcite           0.00    -8.45     -8.45    1.000e+02   9.998e+01  -1.663e-02
Dolomite          0.00   -17.08    -17.08    1.000e+02   1.000e+02   8.412e-03

-----------------------------Solution composition------------------------------

	Elements           Molality       Moles

	B                 1.294e-04   1.294e-04
	C                 3.012e-03   3.012e-03
	Ca                1.258e-02   1.258e-02
	Cl                1.700e-01   1.700e-01
	K                 3.173e-03   3.173e-03
	Mg                8.109e-03   8.108e-03
	Na                1.456e-01   1.456e-01
	S                 8.778e-03   8.777e-03
	Si                2.216e-05   2.216e-05
	Sr                2.874e-05   2.874e-05

----------------------------Description of solution----------------------------

                                       pH  =   7.042      Charge balance
                                       pe  =  10.582      Adjusted to redox equilibrium
      Specific Conductance (µS/cm,  25°C)  = 18561
                          Density (g/cm³)  =   1.00534
                               Volume (L)  =   1.00584
                        Viscosity (mPa s)  =   0.91019
                        Activity of water  =   0.994
                 Ionic strength (mol/kgw)  =   2.090e-01
                       Mass of water (kg)  =   1.000e+00
                 Total alkalinity (eq/kg)  =   2.658e-03
                       Total CO2 (mol/kg)  =   3.012e-03
                         Temperature (°C)  =  25.00
                  Electrical balance (eq)  =  -8.659e-10
 Percent error, 100*(Cat-|An|)/(Cat+|An|)  =  -0.00
                               Iterations  =   5
                                  Total H  = 1.110135e+02
                                  Total O  = 5.554945e+01

----------------------------Distribution of species----------------------------

                                               Log       Log       Log    mole V
   Species          Molality    Activity  Molality  Activity     Gamma   cm³/mol

   OH-             1.574e-07   1.107e-07    -6.803    -6.956    -0.153     -3.48
   H+              1.142e-07   9.087e-08    -6.942    -7.042    -0.099      0.00
   H2O             5.551e+01   9.941e-01     1.744    -0.003     0.000     18.07
B             1.294e-04
   H3BO3           1.283e-04   1.346e-04    -3.892    -3.871     0.021     39.23
   H2BO3-          1.145e-06   8.524e-07    -5.941    -6.069    -0.128     (0)  
C(-4)         0.000e+00
   CH4             0.000e+00   0.000e+00  -120.034  -120.013     0.021     35.46
C(4)          3.012e-03
   HCO3-           2.468e-03   1.842e-03    -2.608    -2.735    -0.127     25.99
   CO2             3.668e-04   3.786e-04    -3.436    -3.422     0.014     34.79
   NaHCO3          9.069e-05   9.752e-05    -4.042    -4.011     0.032     17.66
   MgHCO3+         7.330e-05   5.241e-05    -4.135    -4.281    -0.146      5.72
   CaCO3           5.708e-06   5.989e-06    -5.244    -5.223     0.021    -14.60
   CO3-2           3.112e-06   9.506e-07    -5.507    -6.022    -0.515     -2.55
   MgCO3           2.102e-06   2.206e-06    -5.677    -5.656     0.021    -17.09
   KHCO3           1.728e-06   1.813e-06    -5.762    -5.742     0.021     21.42
   SrHCO3+         3.161e-07   2.350e-07    -6.500    -6.629    -0.129     (0)  
   SrCO3           4.823e-09   5.061e-09    -8.317    -8.296     0.021    -14.13
   (CO2)2          2.257e-09   2.330e-09    -8.646    -8.633     0.014     68.75
   CaHCO3+         8.033e-10   6.057e-10    -9.095    -9.218    -0.123      9.88
Ca            1.258e-02
   Ca+2            1.181e-02   3.750e-03    -1.928    -2.426    -0.498    -17.20
   CaSO4           7.622e-04   7.787e-04    -3.118    -3.109     0.009      7.22
   CaCO3           5.708e-06   5.989e-06    -5.244    -5.223     0.021    -14.60
   CaOH+           9.143e-09   6.808e-09    -8.039    -8.167    -0.128     (0)  
   CaHCO3+         8.033e-10   6.057e-10    -9.095    -9.218    -0.123      9.88
   CaHSO4+         7.963e-10   5.930e-10    -9.099    -9.227    -0.128     (0)  
Cl            1.700e-01
   Cl-             1.700e-01   1.211e-01    -0.770    -0.917    -0.147     18.47
   HCl             3.089e-09   3.791e-09    -8.510    -8.421     0.089     20.36
H(0)          7.627e-39
   H2              3.814e-39   4.011e-39   -38.419   -38.397     0.022     14.99
K             3.173e-03
   K+              3.110e-03   2.204e-03    -2.507    -2.657    -0.150      9.35
   KSO4-           6.127e-05   4.991e-05    -4.213    -4.302    -0.089     28.79
   KHCO3           1.728e-06   1.813e-06    -5.762    -5.742     0.021     21.42
Mg            8.109e-03
   Mg+2            7.159e-03   2.432e-03    -2.145    -2.614    -0.469    -20.91
   MgSO4           8.607e-04   9.477e-04    -3.065    -3.023     0.042     -0.40
   MgHCO3+         7.330e-05   5.241e-05    -4.135    -4.281    -0.146      5.72
   Mg(SO4)2-2      1.294e-05   4.647e-06    -4.888    -5.333    -0.445     45.21
   MgCO3           2.102e-06   2.206e-06    -5.677    -5.656     0.021    -17.09
   MgOH+           1.267e-07   9.658e-08    -6.897    -7.015    -0.118     (0)  
Na            1.456e-01
   Na+             1.436e-01   1.071e-01    -0.843    -0.970    -0.127     -0.92
   NaSO4-          1.891e-03   1.401e-03    -2.723    -2.854    -0.130     19.25
   NaHCO3          9.069e-05   9.752e-05    -4.042    -4.011     0.032     17.66
   Na2SO4          7.010e-08   7.315e-08    -7.154    -7.136     0.018     47.96
O(0)          5.080e-16
   O2              2.540e-16   2.665e-16   -15.595   -15.574     0.021     30.40
S(-2)         0.000e+00
   HS-             0.000e+00   0.000e+00  -117.043  -117.195    -0.153     21.00
   H2S             0.000e+00   0.000e+00  -117.316  -117.295     0.021     36.27
   S-2             0.000e+00   0.000e+00  -122.539  -123.072    -0.533     (0)  
   (H2S)2          0.000e+00   0.000e+00  -235.890  -235.869     0.021     30.09
S(6)          8.778e-03
   SO4-2           5.174e-03   1.489e-03    -2.286    -2.827    -0.541     15.57
   NaSO4-          1.891e-03   1.401e-03    -2.723    -2.854    -0.130     19.25
   MgSO4           8.607e-04   9.477e-04    -3.065    -3.023     0.042     -0.40
   CaSO4           7.622e-04   7.787e-04    -3.118    -3.109     0.009      7.22
   KSO4-           6.127e-05   4.991e-05    -4.213    -4.302    -0.089     28.79
   Mg(SO4)2-2      1.294e-05   4.647e-06    -4.888    -5.333    -0.445     45.21
   SrSO4           2.307e-06   2.420e-06    -5.637    -5.616     0.021     24.24
   Na2SO4          7.010e-08   7.315e-08    -7.154    -7.136     0.018     47.96
   HSO4-           1.766e-08   1.315e-08    -7.753    -7.881    -0.128     40.66
   CaHSO4+         7.963e-10   5.930e-10    -9.099    -9.227    -0.128     (0)  
Si            2.216e-05
   H4SiO4          2.211e-05   2.320e-05    -4.655    -4.635     0.021     52.08
   H3SiO4-         5.264e-08   3.764e-08    -7.279    -7.424    -0.146     28.38
   H2SiO4-2        9.223e-14   2.817e-14   -13.035   -13.550    -0.515     (0)  
Sr            2.874e-05
   Sr+2            2.612e-05   8.339e-06    -4.583    -5.079    -0.496    -17.01
   SrSO4           2.307e-06   2.420e-06    -5.637    -5.616     0.021     24.24
   SrHCO3+         3.161e-07   2.350e-07    -6.500    -6.629    -0.129     (0)  
   SrCO3           4.823e-09   5.061e-09    -8.317    -8.296     0.021    -14.13
   SrOH+           6.357e-12   4.678e-12   -11.197   -11.330    -0.133     (0)  

------------------------------Saturation indices-------------------------------

  Phase               SI** log IAP   log K(298 K,   1 atm)

  Anhydrite        -0.94     -5.25   -4.31  CaSO4
  Aragonite        -0.11     -8.45   -8.34  CaCO3
  Arcanite         -6.26     -8.14   -1.88  K2SO4
  Calcite           0.00     -8.45   -8.45  CaCO3
  Celestite        -1.25     -7.91   -6.66  SrSO4
  CH4(g)         -117.21   -120.01   -2.80  CH4
  Chalcedony       -1.08     -4.63   -3.55  SiO2
  Chrysotile       -7.07     25.14   32.20  Mg3Si2O5(OH)4
  CO2(g)           -1.95     -3.42   -1.47  CO2
  Dolomite          0.00    -17.08  -17.08  CaMg(CO3)2
  Epsomite         -3.72     -5.46   -1.74  MgSO4:7H2O
  Gypsum           -0.71     -5.26   -4.55  CaSO4:2H2O
  H2(g)           -35.30    -38.40   -3.10  H2
  H2O(g)           -1.51     -0.00    1.50  H2O
  H2S(g)         -116.30   -124.24   -7.94  H2S
  Halite           -3.46     -1.89    1.57  NaCl
  Hexahydrite      -3.89     -5.46   -1.57  MgSO4:6H2O
  Kieserite        -4.28     -5.44   -1.16  MgSO4:H2O
  Mirabilite       -4.09     -4.79   -0.71  Na2SO4:10H2O
  O2(g)           -12.68    -15.57   -2.89  O2
  Quartz           -0.65     -4.63   -3.98  SiO2
  Sepiolite        -6.72      9.04   15.76  Mg2Si3O7.5OH:3H2O
  Sepiolite(d)     -9.62      9.04   18.66  Mg2Si3O7.5OH:3H2O
  SiO2(a)          -1.92     -4.63   -2.71  SiO2
  Strontianite     -1.83    -11.10   -9.27  SrCO3
  Sulfur          -86.93    -82.05    4.88  S
  Sylvite          -4.47     -3.57    0.90  KCl
  Talc             -5.52     15.88   21.40  Mg3Si4O10(OH)2
  Thenardite       -5.42     -4.77    0.65  Na2SO4

**For a gas, SI = log10(fugacity). Fugacity = pressure * phi / 1 atm.
  For ideal gases, phi = 1.

------------------
End of simulation.
------------------

------------------------------------
Reading input data for simulation 5.
------------------------------------

	PURE_PHASES
		Calcite          0.000   100.000
	USE solution 1
	END
-----------------------------------------
Beginning of batch-reaction calculations.
-----------------------------------------

Reaction step 1.

Using solution 1.	Solution after simulation 3.
Using pure phase assemblage 1.	

-------------------------------Phase assemblage--------------------------------

                                                      Moles in assemblage
Phase               SI  log IAP  log K(T, P)   Initial       Final       Delta

Calcite           0.00    -8.45     -8.45    1.000e+02   1.000e+02  -3.188e-05

-----------------------------Solution composition------------------------------

	Elements           Molality       Moles

	B                 1.294e-04   1.294e-04
	C                 3.235e-03   3.235e-03
	Ca                4.390e-03   4.389e-03
	Cl                1.700e-01   1.700e-01
	K                 3.173e-03   3.173e-03
	Mg                1.652e-02   1.652e-02
	Na                1.456e-01   1.456e-01
	S                 8.778e-03   8.777e-03
	Si                2.216e-05   2.216e-05
	Sr                2.874e-05   2.874e-05

----------------------------Description of solution----------------------------

                                       pH  =   7.447      Charge balance
                                       pe  =  10.213      Adjusted to redox equilibrium
      Specific Conductance (µS/cm,  25°C)  = 18369
                          Density (g/cm³)  =   1.00527
                               Volume (L)  =   1.00580
                        Viscosity (mPa s)  =   0.91118
                        Activity of water  =   0.994
                 Ionic strength (mol/kgw)  =   2.083e-01
                       Mass of water (kg)  =   1.000e+00
                 Total alkalinity (eq/kg)  =   3.104e-03
                       Total CO2 (mol/kg)  =   3.235e-03
                         Temperature (°C)  =  25.00
                  Electrical balance (eq)  =  -8.659e-10
 Percent error, 100*(Cat-|An|)/(Cat+|An|)  =  -0.00
                               Iterations  =   3
                                  Total H  = 1.110135e+02
                                  Total O  = 5.555012e+01

----------------------------Distribution of species----------------------------

                                               Log       Log       Log    mole V
   Species          Molality    Activity  Molality  Activity     Gamma   cm³/mol

   OH-             4.001e-07   2.815e-07    -6.398    -6.551    -0.153     -3.48
   H+              4.490e-08   3.574e-08    -7.348    -7.447    -0.099      0.00
   H2O             5.551e+01   9.941e-01     1.744    -0.003     0.000     18.07
B             1.294e-04
   H3BO3           1.266e-04   1.328e-04    -3.898    -3.877     0.021     39.23
   H2BO3-          2.870e-06   2.138e-06    -5.542    -5.670    -0.128     (0)  
C(-4)         0.000e+00
   CH4             0.000e+00   0.000e+00  -120.680  -120.659     0.021     35.46
C(4)          3.235e-03
   HCO3-           2.774e-03   2.070e-03    -2.557    -2.684    -0.127     25.98
   MgHCO3+         1.685e-04   1.205e-04    -3.774    -3.919    -0.146      5.72
   CO2             1.621e-04   1.674e-04    -3.790    -3.776     0.014     34.79
   NaHCO3          1.020e-04   1.097e-04    -3.991    -3.960     0.031     17.66
   MgCO3           1.229e-05   1.289e-05    -4.910    -4.890     0.021    -17.09
   CO3-2           8.883e-06   2.716e-06    -5.051    -5.566    -0.515     -2.56
   CaCO3           5.708e-06   5.989e-06    -5.243    -5.223     0.021    -14.60
   KHCO3           1.945e-06   2.040e-06    -5.711    -5.690     0.021     21.42
   SrHCO3+         3.561e-07   2.648e-07    -6.448    -6.577    -0.129     (0)  
   SrCO3           1.382e-08   1.450e-08    -7.859    -7.839     0.021    -14.13
   (CO2)2          4.412e-10   4.553e-10    -9.355    -9.342     0.014     68.75
   CaHCO3+         3.159e-10   2.382e-10    -9.500    -9.623    -0.123      9.88
Ca            4.390e-03
   Ca+2            4.129e-03   1.312e-03    -2.384    -2.882    -0.498    -17.20
   CaSO4           2.544e-04   2.599e-04    -3.594    -3.585     0.009      7.22
   CaCO3           5.708e-06   5.989e-06    -5.243    -5.223     0.021    -14.60
   CaOH+           8.133e-09   6.058e-09    -8.090    -8.218    -0.128     (0)  
   CaHCO3+         3.159e-10   2.382e-10    -9.500    -9.623    -0.123      9.88
   CaHSO4+         1.045e-10   7.785e-11    -9.981   -10.109    -0.128     (0)  
Cl            1.700e-01
   Cl-             1.700e-01   1.211e-01    -0.769    -0.917    -0.147     18.47
   HCl             1.216e-09   1.492e-09    -8.915    -8.826     0.089     20.36
H(0)          6.452e-39
   H2              3.226e-39   3.393e-39   -38.491   -38.469     0.022     14.99
K             3.173e-03
   K+              3.113e-03   2.206e-03    -2.507    -2.656    -0.150      9.35
   KSO4-           5.851e-05   4.766e-05    -4.233    -4.322    -0.089     28.77
   KHCO3           1.945e-06   2.040e-06    -5.711    -5.690     0.021     21.42
Mg            1.652e-02
   Mg+2            1.463e-02   4.974e-03    -1.835    -2.303    -0.469    -20.91
   MgSO4           1.680e-03   1.849e-03    -2.775    -2.733     0.042     -0.40
   MgHCO3+         1.685e-04   1.205e-04    -3.774    -3.919    -0.146      5.72
   Mg(SO4)2-2      2.407e-05   8.648e-06    -4.619    -5.063    -0.445     45.20
   MgCO3           1.229e-05   1.289e-05    -4.910    -4.890     0.021    -17.09
   MgOH+           6.590e-07   5.023e-07    -6.181    -6.299    -0.118     (0)  
Na            1.456e-01
   Na+             1.437e-01   1.072e-01    -0.842    -0.970    -0.127     -0.92
   NaSO4-          1.805e-03   1.337e-03    -2.744    -2.874    -0.130     19.24
   NaHCO3          1.020e-04   1.097e-04    -3.991    -3.960     0.031     17.66
   Na2SO4          6.698e-08   6.988e-08    -7.174    -7.156     0.018     47.96
O(0)          7.103e-16
   O2              3.552e-16   3.726e-16   -15.450   -15.429     0.021     30.40
S(-2)         0.000e+00
   HS-             0.000e+00   0.000e+00  -117.760  -117.912    -0.153     21.00
   H2S             0.000e+00   0.000e+00  -118.438  -118.417     0.021     36.27
   S-2             0.000e+00   0.000e+00  -122.851  -123.383    -0.532     (0)  
   (H2S)2          0.000e+00   0.000e+00  -238.134  -238.113     0.021     30.09
S(6)          8.778e-03
   SO4-2           4.929e-03   1.420e-03    -2.307    -2.848    -0.541     15.57
   NaSO4-          1.805e-03   1.337e-03    -2.744    -2.874    -0.130     19.24
   MgSO4           1.680e-03   1.849e-03    -2.775    -2.733     0.042     -0.40
   CaSO4           2.544e-04   2.599e-04    -3.594    -3.585     0.009      7.22
   KSO4-           5.851e-05   4.766e-05    -4.233    -4.322    -0.089     28.77
   Mg(SO4)2-2      2.407e-05   8.648e-06    -4.619    -5.063    -0.445     45.20
   SrSO4           2.207e-06   2.315e-06    -5.656    -5.635     0.021     24.24
   Na2SO4          6.698e-08   6.988e-08    -7.174    -7.156     0.018     47.96
   HSO4-           6.625e-09   4.934e-09    -8.179    -8.307    -0.128     40.66
   CaHSO4+         1.045e-10   7.785e-11    -9.981   -10.109    -0.128     (0)  
Si            2.216e-05
   H4SiO4          2.203e-05   2.311e-05    -4.657    -4.636     0.021     52.08
   H3SiO4-         1.333e-07   9.533e-08    -6.875    -7.021    -0.146     28.37
   H2SiO4-2        5.933e-13   1.814e-13   -12.227   -12.741    -0.515     (0)  
Sr            2.874e-05
   Sr+2            2.617e-05   8.363e-06    -4.582    -5.078    -0.495    -17.01
   SrSO4           2.207e-06   2.315e-06    -5.656    -5.635     0.021     24.24
   SrHCO3+         3.561e-07   2.648e-07    -6.448    -6.577    -0.129     (0)  
   SrCO3           1.382e-08   1.450e-08    -7.859    -7.839     0.021    -14.13
   SrOH+           1.620e-11   1.193e-11   -10.790   -10.923    -0.133     (0)  

------------------------------Saturation indices-------------------------------

  Phase               SI** log IAP   log K(298 K,   1 atm)

  Anhydrite        -1.42     -5.73   -4.31  CaSO4
  Aragonite        -0.11     -8.45   -8.34  CaCO3
  Arcanite         -6.28     -8.16   -1.88  K2SO4
  Calcite           0.00     -8.45   -8.45  CaCO3
  Celestite        -1.27     -7.93   -6.66  SrSO4
  CH4(g)         -117.86   -120.66   -2.80  CH4
  Chalcedony       -1.08     -4.63   -3.55  SiO2
  Chrysotile       -3.70     28.50   32.20  Mg3Si2O5(OH)4
  CO2(g)           -2.31     -3.78   -1.47  CO2
  Dolomite          0.77    -16.32  -17.08  CaMg(CO3)2
  Epsomite         -3.43     -5.17   -1.74  MgSO4:7H2O
  Gypsum           -1.19     -5.73   -4.55  CaSO4:2H2O
  H2(g)           -35.37    -38.47   -3.10  H2
  H2O(g)           -1.51     -0.00    1.50  H2O
  H2S(g)         -117.42   -125.36   -7.94  H2S
  Halite           -3.46     -1.89    1.57  NaCl
  Hexahydrite      -3.60     -5.17   -1.57  MgSO4:6H2O
  Kieserite        -3.99     -5.15   -1.16  MgSO4:H2O
  Mirabilite       -4.11     -4.81   -0.71  Na2SO4:10H2O
  O2(g)           -12.54    -15.43   -2.89  O2
  Quartz           -0.65     -4.63   -3.98  SiO2
  Sepiolite        -4.49     11.27   15.76  Mg2Si3O7.5OH:3H2O
  Sepiolite(d)     -7.39     11.27   18.66  Mg2Si3O7.5OH:3H2O
  SiO2(a)          -1.92     -4.63   -2.71  SiO2
  Strontianite     -1.37    -10.64   -9.27  SrCO3
  Sulfur          -87.98    -83.10    4.88  S
  Sylvite          -4.47     -3.57    0.90  KCl
  Talc             -2.16     19.24   21.40  Mg3Si4O10(OH)2
  Thenardite       -5.44     -4.79    0.65  Na2SO4

**For a gas, SI = log10(fugacity). Fugacity = pressure * phi / 1 atm.
  For ideal gases, phi = 1.

------------------
End of simulation.
------------------

------------------------------------
Reading input data for simulation 6.
------------------------------------

	SOLUTION 1  PURE WATER                                                                      
	         units   mol/kgs
	            pH    7.0000
	            pe    4.0000
	       density    1.0000
	          temp   25.0000
	PURE_PHASES 1
		Pyrite           0.000   100.000
		Goethite         0.000   100.000
		Calcite          0.000   100.000
	REACTION 1
		O2  	1.000
		0.0	0.001	0.005	0.01	0.05
	END
-------------------------------------------
Beginning of initial solution calculations.
-------------------------------------------

Initial solution 1.	PURE WATER                                                                      

-----------------------------Solution composition------------------------------

	Elements           Molality       Moles

	Pure water     

----------------------------Description of solution----------------------------

                                       pH  =   7.000    
                                       pe  =   4.000    
      Specific Conductance (µS/cm,  25°C)  = 0
                          Density (g/cm³)  =   0.99704
                               Volume (L)  =   1.00297
                        Viscosity (mPa s)  =   0.89002
                        Activity of water  =   1.000
                 Ionic strength (mol/kgw)  =   1.007e-07
                       Mass of water (kg)  =   1.000e+00
                 Total alkalinity (eq/kg)  =   1.217e-09
                         Temperature (°C)  =  25.00
                  Electrical balance (eq)  =  -1.217e-09
 Percent error, 100*(Cat-|An|)/(Cat+|An|)  =  -0.60
                               Iterations  =   0
                                  Total H  = 1.110124e+02
                                  Total O  = 5.550622e+01

----------------------------Distribution of species----------------------------

                                               Log       Log       Log    mole V
   Species          Molality    Activity  Molality  Activity     Gamma   cm³/mol

   OH-             1.013e-07   1.012e-07    -6.995    -6.995    -0.000     -4.14
   H+              1.001e-07   1.000e-07    -7.000    -7.000    -0.000      0.00
   H2O             5.551e+01   1.000e+00     1.744     0.000     0.000     18.07
H(0)          1.416e-25
   H2              7.079e-26   7.079e-26   -25.150   -25.150     0.000     14.99
O(0)          0.000e+00
   O2              0.000e+00   0.000e+00   -42.063   -42.063     0.000     30.40

------------------------------Saturation indices-------------------------------

  Phase               SI** log IAP   log K(298 K,   1 atm)

  H2(g)           -22.05    -25.15   -3.10  H2
  H2O(g)           -1.50      0.00    1.50  H2O
  O2(g)           -39.17    -42.06   -2.89  O2

**For a gas, SI = log10(fugacity). Fugacity = pressure * phi / 1 atm.
  For ideal gases, phi = 1.

-----------------------------------------
Beginning of batch-reaction calculations.
-----------------------------------------

Reaction step 1.

Using solution 1.	PURE WATER                                                                      
Using pure phase assemblage 1.	
Using reaction 1.	

Reaction 1.	

	  0.000e+00 moles of the following reaction have been added:

	                 Relative
	Reactant            moles

	O2                   1.00000

	                 Relative
	Element             moles
	O                    2.00000

-------------------------------Phase assemblage--------------------------------

                                                      Moles in assemblage
Phase               SI  log IAP  log K(T, P)   Initial       Final       Delta

Calcite           0.00    -8.45     -8.45    1.000e+02   1.000e+02  -1.270e-04
Goethite         -0.00    -1.00     -1.00    1.000e+02   1.000e+02   1.503e-07
Pyrite           -0.00   -18.48    -18.48    1.000e+02   1.000e+02  -1.503e-07

-----------------------------Solution composition------------------------------

	Elements           Molality       Moles

	C                 1.270e-04   1.270e-04
	Ca                1.270e-04   1.270e-04
	Fe                8.178e-11   8.178e-11
	S                 3.007e-07   3.007e-07

----------------------------Description of solution----------------------------

                                       pH  =   9.915      Charge balance
                                       pe  =  -6.958      Adjusted to redox equilibrium
      Specific Conductance (µS/cm,  25°C)  = 37
                          Density (g/cm³)  =   0.99706
                               Volume (L)  =   1.00296
                        Viscosity (mPa s)  =   0.89034
                        Activity of water  =   1.000
                 Ionic strength (mol/kgw)  =   3.983e-04
                       Mass of water (kg)  =   1.000e+00
                 Total alkalinity (eq/kg)  =   2.538e-04
                       Total CO2 (mol/kg)  =   1.269e-04
                         Temperature (°C)  =  25.00
                  Electrical balance (eq)  =  -1.217e-09
 Percent error, 100*(Cat-|An|)/(Cat+|An|)  =  -0.00
                               Iterations  =  17
                                  Total H  = 1.110124e+02
                                  Total O  = 5.550660e+01

----------------------------Distribution of species----------------------------

                                               Log       Log       Log    mole V
   Species          Molality    Activity  Molality  Activity     Gamma   cm³/mol

   OH-             8.525e-05   8.332e-05    -4.069    -4.079    -0.010     -4.12
   H+              1.242e-10   1.215e-10    -9.906    -9.915    -0.010      0.00
   H2O             5.551e+01   1.000e+00     1.744    -0.000     0.000     18.07
C(-4)         1.238e-07
   CH4             1.238e-07   1.238e-07    -6.907    -6.907     0.000     35.46
C(4)          1.269e-04
   HCO3-           8.555e-05   8.364e-05    -4.068    -4.078    -0.010     24.54
   CO3-2           3.535e-05   3.229e-05    -4.452    -4.491    -0.039     -4.73
   CaCO3           5.988e-06   5.989e-06    -5.223    -5.223     0.000    -14.60
[...]
   BaOH+           2.836e-15   1.700e-15   -14.547   -14.770    -0.222     (0)  
Br            9.035e-04
   Br-             9.035e-04   5.520e-04    -3.044    -3.258    -0.214     26.10
C(-4)         1.505e-09
   CH4             1.505e-09   2.460e-09    -8.823    -8.609     0.213     36.25
C(4)          2.709e-04
   HCO3-           1.252e-04   8.015e-05    -3.902    -4.096    -0.194     33.97
   MgHCO3+         1.103e-04   6.076e-05    -3.957    -4.216    -0.259      6.18
   CO2             1.916e-05   2.650e-05    -4.718    -4.577     0.141     35.26
   NaHCO3          1.088e-05   2.286e-05    -4.963    -4.641     0.322     18.34
   CaCO3           3.803e-06   6.216e-06    -5.420    -5.207     0.213    -14.57
   MgCO3           1.214e-06   1.984e-06    -5.916    -5.702     0.213    -17.09
   CO3-2           2.019e-07   2.907e-08    -6.695    -7.537    -0.842      3.28
   FeHCO3+         2.249e-08   2.378e-08    -7.648    -7.624     0.024     (0)  
   KHCO3           1.970e-08   3.220e-08    -7.706    -7.492     0.213     22.06
   SrHCO3+         1.719e-08   1.059e-08    -7.765    -7.975    -0.210     (0)  
   CaHCO3+         8.372e-09   5.346e-09    -8.077    -8.272    -0.195     10.37
   FeCO3           1.265e-09   2.068e-09    -8.898    -8.684     0.213     (0)  
   SrCO3           9.352e-11   1.529e-10   -10.029    -9.816     0.213    -14.09
   (CO2)2          1.308e-11   1.809e-11   -10.883   -10.742     0.141     69.68
   BaHCO3+         8.081e-12   8.544e-12   -11.093   -11.068     0.024     (0)  
   MnHCO3+         2.215e-12   1.327e-12   -11.655   -11.877    -0.222     (0)  
   MnCO3           2.624e-13   4.290e-13   -12.581   -12.368     0.213     (0)  
   BaCO3           9.116e-14   1.490e-13   -13.040   -12.827     0.213    -10.62
Ca            3.521e-01
   Ca+2            3.478e-01   1.009e-01    -0.459    -0.996    -0.537    -15.60
   CaSO4           4.322e-03   5.378e-03    -2.364    -2.269     0.095      8.13
   CaCO3           3.803e-06   6.216e-06    -5.420    -5.207     0.213    -14.57
   CaHPO4          2.458e-07   4.018e-07    -6.609    -6.396     0.213     (0)  
   CaOH+           9.789e-08   1.035e-07    -7.009    -6.985     0.024     (0)  
   CaH2PO4+        7.204e-08   4.438e-08    -7.142    -7.353    -0.210     (0)  
   CaPO4-          1.201e-08   7.396e-09    -7.921    -8.131    -0.210     (0)  
   CaHCO3+         8.372e-09   5.346e-09    -8.077    -8.272    -0.195     10.37
   CaHSO4+         5.955e-09   6.296e-09    -8.225    -8.201     0.024     (0)  
   CaMoO4          2.386e-09   3.900e-09    -8.622    -8.409     0.213     (0)  
Cl            1.620e+00
   Cl-             1.620e+00   9.336e-01     0.210    -0.030    -0.239     19.57
   FeCl+           3.616e-06   3.823e-06    -5.442    -5.418     0.024     (0)  
   HCl             5.759e-09   4.663e-08    -8.240    -7.331     0.908     20.97
   MnCl+           1.179e-09   7.067e-10    -8.928    -9.151    -0.222     -0.69
   MnCl2           1.762e-10   2.880e-10    -9.754    -9.541     0.213     75.17
   MnCl3-          1.236e-10   7.405e-11    -9.908   -10.130    -0.222     50.56
   FeCl+2          5.430e-20   7.005e-21   -19.265   -20.155    -0.889     (0)  
   FeCl2+          3.587e-20   2.150e-20   -19.445   -19.668    -0.222     (0)  
   FeCl3           1.228e-21   2.007e-21   -20.911   -20.697     0.213     (0)  
F             7.848e-05
   MgF+            6.277e-05   3.618e-05    -4.202    -4.442    -0.239    -10.19
   F-              1.434e-05   7.490e-06    -4.843    -5.126    -0.282      0.18
   NaF             1.357e-06   2.218e-06    -5.867    -5.654     0.213      7.59
   BF(OH)3-        1.229e-08   1.300e-08    -7.910    -7.886     0.024     (0)  
   HF              1.274e-09   2.082e-09    -8.895    -8.682     0.213     12.90
   FeF+            2.101e-10   2.222e-10    -9.678    -9.653     0.024     (0)  
   AlF+2           1.704e-12   2.453e-13   -11.768   -12.610    -0.842     (0)  
   BF2(OH)2-       1.577e-12   1.667e-12   -11.802   -11.778     0.024     (0)  
   AlF2+           1.572e-12   9.685e-13   -11.803   -12.014    -0.210     (0)  
   HF2-            6.043e-14   6.389e-14   -13.219   -13.195     0.024     23.88
   AlF3            5.642e-14   9.222e-14   -13.249   -13.035     0.213     (0)  
   MnF+            1.606e-14   9.628e-15   -13.794   -14.016    -0.222     (0)  
   AlF4-           4.781e-16   2.756e-16   -15.320   -15.560    -0.239     (0)  
   BF3OH-          1.756e-18   1.856e-18   -17.756   -17.731     0.024     (0)  
   FeF+2           1.950e-20   2.516e-21   -19.710   -20.599    -0.889     (0)  
   FeF2+           1.405e-21   8.418e-22   -20.852   -21.075    -0.222     (0)  
   BF4-            8.561e-24   9.051e-24   -23.068   -23.043     0.024     (0)  
   FeF3            6.317e-24   1.033e-23   -23.199   -22.986     0.213     (0)  
   SiF6-2          1.928e-31   2.488e-32   -30.715   -31.604    -0.889     48.91
Fe(2)         2.167e-05
   Fe+2            1.784e-05   2.966e-06    -4.749    -5.528    -0.779    -19.22
   FeCl+           3.616e-06   3.823e-06    -5.442    -5.418     0.024     (0)  
   FeSO4           1.062e-07   1.736e-07    -6.974    -6.760     0.213     30.88
   Fe(HS)2         6.470e-08   1.058e-07    -7.189    -6.976     0.213     (0)  
   FeHCO3+         2.249e-08   2.378e-08    -7.648    -7.624     0.024     (0)  
   FeOH+           1.993e-08   1.194e-08    -7.701    -7.923    -0.222     (0)  
   FeCO3           1.265e-09   2.068e-09    -8.898    -8.684     0.213     (0)  
   FeF+            2.101e-10   2.222e-10    -9.678    -9.653     0.024     (0)  
   Fe(HS)3-        6.889e-11   7.283e-11   -10.162   -10.138     0.024     (0)  
   FeHPO4          4.378e-11   7.157e-11   -10.359   -10.145     0.213     (0)  
   FeH2PO4+        3.442e-11   2.120e-11   -10.463   -10.674    -0.210     (0)  
   Fe(OH)2         8.913e-13   1.457e-12   -12.050   -11.837     0.213     (0)  
   FeHSO4+         1.750e-13   1.850e-13   -12.757   -12.733     0.024     (0)  
   Fe(OH)3-        6.137e-16   3.678e-16   -15.212   -15.434    -0.222     (0)  
Fe(3)         9.079e-14
   Fe(OH)2+        6.180e-14   3.807e-14   -13.209   -13.419    -0.210     (0)  
   Fe(OH)3         2.826e-14   4.620e-14   -13.549   -13.335     0.213     (0)  
   Fe(OH)4-        6.235e-16   3.840e-16   -15.205   -15.416    -0.210     (0)  
   FeOH+2          9.993e-17   1.289e-17   -16.000   -16.890    -0.889     (0)  
   FeCl+2          5.430e-20   7.005e-21   -19.265   -20.155    -0.889     (0)  
   FeCl2+          3.587e-20   2.150e-20   -19.445   -19.668    -0.222     (0)  
   FeF+2           1.950e-20   2.516e-21   -19.710   -20.599    -0.889     (0)  
   Fe+3            3.470e-21   1.828e-22   -20.460   -21.738    -1.278     (0)  
   FeF2+           1.405e-21   8.418e-22   -20.852   -21.075    -0.222     (0)  
   FeCl3           1.228e-21   2.007e-21   -20.911   -20.697     0.213     (0)  
   FeSO4+          1.143e-21   6.849e-22   -20.942   -21.164    -0.222     (0)  
   FeF3            6.317e-24   1.033e-23   -23.199   -22.986     0.213     (0)  
   FeH2PO4+2       4.876e-24   7.019e-25   -23.312   -24.154    -0.842     (0)  
   Fe(SO4)2-       4.059e-24   4.291e-24   -23.392   -23.367     0.024     (0)  
   FeHPO4+         6.822e-25   4.089e-25   -24.166   -24.388    -0.222     (0)  
   FeHSO4+2        2.293e-28   2.865e-28   -27.640   -27.543     0.097     (0)  
   Fe2(OH)2+4      1.230e-33   2.999e-33   -32.910   -32.523     0.387     (0)  
   Fe3(OH)4+5      0.000e+00   0.000e+00   -44.615   -44.010     0.605     (0)  
H(0)          1.266e-10
   H2              6.330e-11   1.060e-10   -10.199    -9.975     0.224     15.65
K             1.370e-03
   K+              1.367e-03   7.686e-04    -2.864    -3.114    -0.250     10.61
   KSO4-           2.162e-06   3.388e-06    -5.665    -5.470     0.195     44.41
   KHCO3           1.970e-08   3.220e-08    -7.706    -7.492     0.213     22.06
   KHPO4-          1.475e-11   9.083e-12   -10.831   -11.042    -0.210     41.71
Li            1.243e-05
   Li+             1.241e-05   7.927e-06    -4.906    -5.101    -0.195     -0.39
   LiSO4-          1.592e-08   9.542e-09    -7.798    -8.020    -0.222     (0)  
Mg            1.578e-01
   Mg+2            1.555e-01   6.136e-02    -0.808    -1.212    -0.404    -19.79
   MgSO4           2.142e-03   5.723e-03    -2.669    -2.242     0.427      0.35
   MgHCO3+         1.103e-04   6.076e-05    -3.957    -4.216    -0.259      6.18
   MgF+            6.277e-05   3.618e-05    -4.202    -4.442    -0.239    -10.19
   Mg(SO4)2-2      1.706e-05   4.355e-06    -4.768    -5.361    -0.593     57.07
   MgOH+           5.031e-06   3.298e-06    -5.298    -5.482    -0.183     (0)  
   MgCO3           1.214e-06   1.984e-06    -5.916    -5.702     0.213    -17.09
   MgHPO4          2.021e-07   3.303e-07    -6.695    -6.481     0.213     (0)  
   MgH2PO4+        5.577e-08   3.435e-08    -7.254    -7.464    -0.210     (0)  
   MgPO4-          9.846e-09   6.065e-09    -8.007    -8.217    -0.210     (0)  
   MgMoO4          4.183e-09   6.838e-09    -8.378    -8.165     0.213     (0)  
Mn(2)         2.602e-09
   MnCl+           1.179e-09   7.067e-10    -8.928    -9.151    -0.222     -0.69
   Mn+2            1.118e-09   1.858e-10    -8.952    -9.731    -0.779    -15.03
   MnCl2           1.762e-10   2.880e-10    -9.754    -9.541     0.213     75.17
   MnCl3-          1.236e-10   7.405e-11    -9.908   -10.130    -0.222     50.56
   MnSO4           2.814e-12   1.738e-12   -11.551   -11.760    -0.209     17.25
   MnHCO3+         2.215e-12   1.327e-12   -11.655   -11.877    -0.222     (0)  
   MnCO3           2.624e-13   4.290e-13   -12.581   -12.368     0.213     (0)  
   MnOH+           1.083e-13   6.493e-14   -12.965   -13.188    -0.222     (0)  
   MnF+            1.606e-14   9.628e-15   -13.794   -14.016    -0.222     (0)  
   Mn(OH)3-        1.159e-24   6.945e-25   -23.936   -24.158    -0.222     (0)  
   Mn(NO3)2        0.000e+00   0.000e+00  -165.645  -165.432     0.213     38.69
Mn(3)         1.701e-37
   Mn+3            1.701e-37   8.961e-39   -36.769   -38.048    -1.278     (0)  
Mo            6.653e-09
   MgMoO4          4.183e-09   6.838e-09    -8.378    -8.165     0.213     (0)  
   CaMoO4          2.386e-09   3.900e-09    -8.622    -8.409     0.213     (0)  
   MoO4-2          8.323e-11   1.040e-10   -10.080    -9.983     0.097     (0)  
   HMoO4-          2.637e-13   2.788e-13   -12.579   -12.555     0.024     (0)  
   H2MoO4          1.072e-17   1.752e-17   -16.970   -16.756     0.213     (0)  
N(-3)         1.375e-04
   NH4+            1.362e-04   6.171e-05    -3.866    -4.210    -0.344     18.89
   NH4SO4-         1.017e-06   4.753e-07    -5.993    -6.323    -0.330     44.57
   NH3             2.760e-07   4.511e-07    -6.559    -6.346     0.213     24.72
N(0)          1.097e-04
   N2              5.485e-05   8.966e-05    -4.261    -4.047     0.213     29.29
N(3)          0.000e+00
   NO2-            0.000e+00   0.000e+00   -57.068   -57.378    -0.310     26.85
N(5)          0.000e+00
   NO3-            0.000e+00   0.000e+00   -77.836   -78.146    -0.310     31.72
   Mn(NO3)2        0.000e+00   0.000e+00  -165.645  -165.432     0.213     38.69
Na            6.212e-01
   Na+             6.196e-01   5.146e-01    -0.208    -0.288    -0.081      0.50
   NaSO4-          1.576e-03   1.393e-03    -2.803    -2.856    -0.053     26.96
   NaHCO3          1.088e-05   2.286e-05    -4.963    -4.641     0.322     18.34
   NaF             1.357e-06   2.218e-06    -5.867    -5.654     0.213      7.59
   Na2SO4          5.902e-07   9.117e-07    -6.229    -6.040     0.189     43.65
   NaHPO4-         9.873e-09   6.081e-09    -8.006    -8.216    -0.210    205.68
O(0)          0.000e+00
   O2              0.000e+00   0.000e+00   -69.472   -69.259     0.213     31.10
P             6.777e-07
   CaHPO4          2.458e-07   4.018e-07    -6.609    -6.396     0.213     (0)  
   MgHPO4          2.021e-07   3.303e-07    -6.695    -6.481     0.213     (0)  
   CaH2PO4+        7.204e-08   4.438e-08    -7.142    -7.353    -0.210     (0)  
   MgH2PO4+        5.577e-08   3.435e-08    -7.254    -7.464    -0.210     (0)  
   HPO4-2          4.698e-08   6.060e-09    -7.328    -8.217    -0.889     12.23
   H2PO4-          2.316e-08   1.426e-08    -7.635    -7.846    -0.210     37.21
   CaPO4-          1.201e-08   7.396e-09    -7.921    -8.131    -0.210     (0)  
   NaHPO4-         9.873e-09   6.081e-09    -8.006    -8.216    -0.210    205.68
   MgPO4-          9.846e-09   6.065e-09    -8.007    -8.217    -0.210     (0)  
   FeHPO4          4.378e-11   7.157e-11   -10.359   -10.145     0.213     (0)  
   FeH2PO4+        3.442e-11   2.120e-11   -10.463   -10.674    -0.210     (0)  
   KHPO4-          1.475e-11   9.083e-12   -10.831   -11.042    -0.210     41.71
   PO4-3           4.601e-12   2.149e-14   -11.337   -13.668    -2.331    -13.31
   H3PO4           2.224e-13   3.635e-13   -12.653   -12.439     0.213     47.88
   FeH2PO4+2       4.876e-24   7.019e-25   -23.312   -24.154    -0.842     (0)  
   FeHPO4+         6.822e-25   4.089e-25   -24.166   -24.388    -0.222     (0)  
S(-2)         1.622e-05
   HS-             1.211e-05   6.325e-06    -4.917    -5.199    -0.282     22.42
   H2S             3.974e-06   6.496e-06    -5.401    -5.187     0.213     38.44
   Fe(HS)2         6.470e-08   1.058e-07    -7.189    -6.976     0.213     (0)  
   S-2             7.447e-11   9.607e-12   -10.128   -11.017    -0.889     (0)  
   Fe(HS)3-        6.889e-11   7.283e-11   -10.162   -10.138     0.024     (0)  
   (H2S)2          1.717e-12   2.806e-12   -11.765   -11.552     0.213     29.63
S(6)          1.068e-02
   CaSO4           4.322e-03   5.378e-03    -2.364    -2.269     0.095      8.13
   SO4-2           2.602e-03   2.758e-04    -2.585    -3.559    -0.975     22.24
   MgSO4           2.142e-03   5.723e-03    -2.669    -2.242     0.427      0.35
   NaSO4-          1.576e-03   1.393e-03    -2.803    -2.856    -0.053     26.96
   Mg(SO4)2-2      1.706e-05   4.355e-06    -4.768    -5.361    -0.593     57.07
   KSO4-           2.162e-06   3.388e-06    -5.665    -5.470     0.195     44.41
   NH4SO4-         1.017e-06   4.753e-07    -5.993    -6.323    -0.330     44.57
   Na2SO4          5.902e-07   9.117e-07    -6.229    -6.040     0.189     43.65
   SrSO4           2.260e-07   3.695e-07    -6.646    -6.432     0.213     24.56
   FeSO4           1.062e-07   1.736e-07    -6.974    -6.760     0.213     30.88
   LiSO4-          1.592e-08   9.542e-09    -7.798    -8.020    -0.222     (0)  
   CaHSO4+         5.955e-09   6.296e-09    -8.225    -8.201     0.024     (0)  
   HSO4-           4.907e-09   5.188e-09    -8.309    -8.285     0.024     42.06
   MnSO4           2.814e-12   1.738e-12   -11.551   -11.760    -0.209     17.25
   FeHSO4+         1.750e-13   1.850e-13   -12.757   -12.733     0.024     (0)  
   AlSO4+          5.301e-15   3.055e-15   -14.276   -14.515    -0.239     (0)  
   Al(SO4)2-       4.835e-17   2.787e-17   -16.316   -16.555    -0.239     (0)  
   FeSO4+          1.143e-21   6.849e-22   -20.942   -21.164    -0.222     (0)  
   AlHSO4+2        3.701e-23   4.624e-23   -22.432   -22.335     0.097     (0)  
   Fe(SO4)2-       4.059e-24   4.291e-24   -23.392   -23.367     0.024     (0)  
   FeHSO4+2        2.293e-28   2.865e-28   -27.640   -27.543     0.097     (0)  
Si            2.030e-04
   H4SiO4          2.022e-04   3.306e-04    -3.694    -3.481     0.213     51.34
   H3SiO4-         7.949e-07   4.379e-07    -6.100    -6.359    -0.259     29.60
   H2SiO4-2        2.478e-12   3.567e-13   -11.606   -12.448    -0.842     (0)  
   SiF6-2          1.928e-31   2.488e-32   -30.715   -31.604    -0.889     48.91
Sr            2.463e-05
   Sr+2            2.439e-05   6.132e-06    -4.613    -5.212    -0.600    -15.38
   SrSO4           2.260e-07   3.695e-07    -6.646    -6.432     0.213     24.56
   SrHCO3+         1.719e-08   1.059e-08    -7.765    -7.975    -0.210     (0)  
   SrCO3           9.352e-11   1.529e-10   -10.029    -9.816     0.213    -14.09
   SrOH+           3.242e-12   1.943e-12   -11.489   -11.712    -0.222     (0)  

------------------------------Saturation indices-------------------------------

  Phase               SI** log IAP   log K(308 K,   1 atm)

  Al(OH)3(a)       -4.31      5.86   10.17  Al(OH)3
  Albite           -2.19    -19.57  -17.39  NaAlSi3O8
  Alunite         -10.42    -13.02   -2.60  KAl3(SO4)2(OH)6
  Anhydrite        -0.08     -4.56   -4.48  CaSO4
  Anorthite        -6.37    -25.81  -19.44  CaAl2Si2O8
  Aragonite        -0.13     -8.53   -8.41  CaCO3
  Arcanite         -8.03     -9.79   -1.76  K2SO4
  Barite           -1.87    -11.65   -9.78  BaSO4
  Ca-Montmorillonite  -3.66    -47.30  -43.64  Ca0.165Al2.33Si3.67O10(OH)2
  Calcite           0.00     -8.53   -8.53  CaCO3
  Celestite        -2.06     -8.77   -6.71  SrSO4
  CH4(g)           -5.73     -8.61   -2.88  CH4
  Chalcedony        0.00     -3.44   -3.44  SiO2
  Chlorite(14A)    -1.44     63.34   64.78  Mg5Al2Si3O10(OH)8
  Chrysotile       -0.75     30.25   31.00  Mg3Si2O5(OH)4
  CO2(g)           -3.00     -4.58   -1.58  CO2	 Pressure   0.0 atm, phi 1.000
  Dolomite          0.00    -17.28  -17.28  CaMg(CO3)2
  Epsomite         -3.24     -4.92   -1.68  MgSO4:7H2O
  Fe(OH)3(a)       -6.26     -1.37    4.89  Fe(OH)3
  FeS(ppt)         -0.00     -3.92   -3.92  FeS
  Fluorite         -0.75    -11.25  -10.49  CaF2
  Gibbsite         -1.64      5.86    7.51  Al(OH)3
  Goethite          0.00     -1.34   -1.34  FeOOH
  Gypsum            0.00     -4.60   -4.60  CaSO4:2H2O
  H2(g)            -6.86     -9.97   -3.12  H2
  H2O(g)           -1.28     -0.02    1.26  H2O
  H2S(g)           -4.09    -12.01   -7.92  H2S
  Halite           -1.90     -0.32    1.58  NaCl
  Hausmannite     -40.26     18.38   58.64  Mn3O4
  Hematite          2.07     -2.67   -4.74  Fe2O3
  Hexahydrite      -3.34     -4.90   -1.55  MgSO4:6H2O
  Hydroxyapatite    1.87     -2.41   -4.28  Ca5(PO4)3OH
  Illite           -4.05    -43.02  -38.97  K0.6Mg0.25Al2.3Si3.5O10(OH)2
  Jarosite-K      -24.75    -34.70   -9.95  KFe3(SO4)2(OH)6
  K-feldspar       -2.56    -22.40  -19.84  KAlSi3O8
  K-mica           -0.26     11.03   11.29  KAl3Si3O10(OH)2
  Kaolinite         0.00      4.87    4.87  Al2Si2O5(OH)4
  Kieserite        -3.66     -4.79   -1.14  MgSO4:H2O
  Mackinawite       0.73     -3.92   -4.65  FeS
  Manganite       -18.10      7.24   25.34  MnOOH
  Melanterite      -7.14     -9.23   -2.10  FeSO4:7H2O
  Microcline       -1.31     -0.74    0.58  KAlSi3O8
  Mirabilite       -4.38     -4.35    0.04  Na2SO4:10H2O
  Muscovite        -0.53     11.03   11.56  KAl3Si3O10(OH)2
  N2(g)            -0.82     -4.05   -3.23  N2
  NH3(g)           -7.94     -6.35    1.60  NH3
  O2(g)           -66.30    -69.26   -2.96  O2
  Pyrite            9.07     -9.14  -18.21  FeS2
  Pyrochroite     -11.35      3.85   15.20  Mn(OH)2
  Pyrolusite      -29.22     10.61   39.83  MnO2:H2O
  Quartz            0.40     -3.44   -3.84  SiO2
  Rhodochrosite    -6.10    -17.27  -11.16  MnCO3
  Sepiolite        -1.11     14.39   15.51  Mg2Si3O7.5OH:3H2O
  Sepiolite(d)     -4.27     14.39   18.66  Mg2Si3O7.5OH:3H2O
  Siderite         -2.12    -13.06  -10.95  FeCO3
  SiO2(a)          -0.81     -3.44   -2.63  SiO2
  Strontianite     -3.46    -12.75   -9.29  SrCO3
  Sulfur           -3.06      1.60    4.66  S
  Sylvite          -4.09     -3.14    0.95  KCl
  Talc              3.10     23.39   20.30  Mg3Si4O10(OH)2
  Thenardite       -4.65     -4.14    0.51  Na2SO4
  Vivianite        -8.09    -44.09  -36.00  Fe3(PO4)2:8H2O
  Witherite        -7.07    -15.63   -8.56  BaCO3

**For a gas, SI = log10(fugacity). Fugacity = pressure * phi / 1 atm.
  For ideal gases, phi = 1.

------------------
End of simulation.
------------------

-------------------------------------
Reading input data for simulation 22.
-------------------------------------

