WARNING: Database file from DATABASE keyword is used; command line argument ignored.
   Input file: phrqpitz.tst
  Output file: phrqpitz.tst.out
Database file: ../database/pitzer.dat

------------------
Reading data base.
------------------

	SOLUTION_MASTER_SPECIES
	SOLUTION_SPECIES
	PHASES
	PITZER
	GAS_BINARY_PARAMETERS
	EXCHANGE_MASTER_SPECIES
	EXCHANGE_SPECIES
	SURFACE_MASTER_SPECIES
	SURFACE_SPECIES
	MEAN_GAMMAS
	END
------------------------------------
Reading input data for simulation 1.
------------------------------------

	DATABASE ../database/pitzer.dat
	SELECTED_OUTPUT 101
	    file                 phrqpitz.tst_101.sel
	USER_PUNCH 101
	    headings Mu SC
	    start
	10 PUNCH STR_F$(MU, 20, 12)
	20 PUNCH STR_F$(SC, 20, 10)
	    end
	knobs
		convergence_tolerance	1e-10
		step_size	10
	PITZER
		 macinnes  true
	SOLUTION 1 Canadian Shield Brine T-93.
		 units	    mg/L
		 pH	    5
		 pe	    4
		 density    1.204
		 temp	    18
		 Ca	    64000.
		 Na	    45000.
		 Mg	    5100.
		 K	    199.
		 Sr	    1080.
		 Cl	    207000.
		 Br	    1760.
		 S	    284.
		 Alkalinity 19. as HCO3
	END
-------------------------------------------
Beginning of initial solution calculations.
-------------------------------------------

Initial solution 1.	Canadian Shield Brine T-93.

-----------------------------Solution composition------------------------------

	Elements           Molality       Moles

	Alkalinity        3.540e-04   3.540e-04
	Br                2.504e-02   2.504e-02
	Ca                1.815e+00   1.815e+00
	Cl                6.638e+00   6.638e+00
	K                 5.787e-03   5.787e-03
	Mg                2.386e-01   2.386e-01
	Na                2.225e+00   2.225e+00
	S                 3.361e-03   3.361e-03
	Sr                1.401e-02   1.401e-02

----------------------------Description of solution----------------------------

                                       pH  =   5.000    
                                       pe  =   4.000    
      Specific Conductance (µS/cm,  18°C)  = 197895
                          Density (g/cm³)  =   1.23177
                               Volume (L)  =   1.11148
                        Viscosity (mPa s)  =   2.47086
                        Activity of water  =   0.723
                 Ionic strength (mol/kgw)  =   8.590e+00
                       Mass of water (kg)  =   1.000e+00
                    Total carbon (mol/kg)  =   5.335e-03
                       Total CO2 (mol/kg)  =   5.335e-03
                         Temperature (°C)  =  18.00
                  Electrical balance (eq)  =  -3.031e-01
 Percent error, 100*(Cat-|An|)/(Cat+|An|)  =  -2.32
                               Iterations  =  26
                         Gamma iterations  =   7
                      Osmotic coefficient  =   1.63794
                         Density of water  =   0.99859
                                  Total H  = 1.110128e+02
                                  Total O  = 5.553068e+01

----------------------------Distribution of species----------------------------

                                                    MacInnes  MacInnes
                                MacInnes       Log       Log       Log    mole V
   Species          Molality    Activity  Molality  Activity     Gamma   cm³/mol

   H+              8.465e-07   1.000e-05    -6.072    -5.000     1.072      0.00
   OH-             1.724e-08   4.211e-10    -7.764    -9.376    -1.612      7.49
   H2O             5.551e+01   7.234e-01     1.744    -0.141     0.000     18.04
Br            2.504e-02
   Br-             2.504e-02   2.574e-02    -1.601    -1.589     0.012     26.05
C(4)          5.335e-03
   CO2             4.990e-03   1.447e-02    -2.302    -1.840     0.462     34.46
   HCO3-           3.355e-04   4.310e-04    -3.474    -3.366     0.109     29.58
   MgCO3           4.815e-06   4.815e-06    -5.317    -5.317     0.000    -17.08
   CO3-2           4.658e-06   1.691e-09    -5.332    -8.772    -3.440     10.96
Ca            1.815e+00
   Ca+2            1.815e+00   1.536e+01     0.259     1.186     0.927    -13.90
Cl            6.638e+00
   Cl-             6.638e+00   4.443e+00     0.822     0.648    -0.174     20.29
K             5.787e-03
   K+              5.787e-03   4.895e-03    -2.238    -2.310    -0.073     13.37
Mg            2.386e-01
   Mg+2            2.386e-01   3.711e+00    -0.622     0.569     1.192    -16.59
   MgCO3           4.815e-06   4.815e-06    -5.317    -5.317     0.000    -17.08
   MgOH+           3.595e-07   2.229e-07    -6.444    -6.652    -0.208     (0)  
Na            2.225e+00
   Na+             2.225e+00   5.747e+00     0.347     0.759     0.412      1.69
S(6)          3.361e-03
   SO4-2           3.361e-03   2.687e-06    -2.474    -5.571    -3.097     28.04
   HSO4-           4.712e-09   2.253e-09    -8.327    -8.647    -0.321     41.77
Sr            1.401e-02
   Sr+2            1.401e-02   7.691e-02    -1.853    -1.114     0.739    -11.99

------------------------------Saturation indices-------------------------------

  Phase               SI** log IAP   log K(291 K,   1 atm)

  Anhydrite        -0.22     -4.38   -4.16  CaSO4
  Aragonite         0.59     -7.59   -8.18  CaCO3
  Arcanite         -8.21    -10.19   -1.98  K2SO4
  Artinite         -8.14     12.07   20.21  Mg2CO3(OH)2:3H2O
  Bischofite       -3.66      1.02    4.68  MgCl2:6H2O
  Bloedite         -7.27     -9.62   -2.35  Na2Mg(SO4)2:4H2O
  Brucite          -7.22    -18.18  -10.97  Mg(OH)2
  Burkeite        -14.58    -15.36   -0.77  Na6CO3(SO4)2
  Calcite           0.81     -7.59   -8.39  CaCO3
  Carnallite       -5.03     -0.64    4.39  KMgCl3:6H2O
  Celestite        -0.06     -6.68   -6.62  SrSO4
  CO2(g)           -0.46     -1.84   -1.38  CO2
  Dolomite          1.13    -15.79  -16.91  CaMg(CO3)2
  Epsomite         -4.08     -5.99   -1.90  MgSO4:7H2O
  Gaylussite       -6.12    -15.54   -9.42  CaNa2(CO3)2:5H2O
  Glaserite       -13.40    -17.31   -3.91  NaK3(SO4)2
  Glauberite       -3.14     -8.44   -5.30  Na2Ca(SO4)2
  Goergeyite       -2.47    -32.25  -29.79  K2Ca5(SO4)6H2O
  Gypsum           -0.07     -4.67   -4.60  CaSO4:2H2O
  H2O(g)           -1.83     -0.14    1.69  H2O
  Halite           -0.16      1.41    1.56  NaCl
  Hexahydrite      -4.30     -5.84   -1.55  MgSO4:6H2O
  Huntite          -1.59      9.43   11.02  CaMg3(CO3)4
  Kainite          -6.89     -7.09   -0.19  KMgClSO4:3H2O
  Kalicinite       -6.14    -16.08   -9.94  KHCO3
  Kieserite        -4.99     -5.14   -0.15  MgSO4:H2O
  Labile_S         -7.10    -12.77   -5.67  Na4Ca(SO4)3:2H2O
  Leonhardite      -4.68     -5.56   -0.89  MgSO4:4H2O
  Leonite         -11.78    -15.75   -3.98  K2Mg(SO4)2:4H2O
  Magnesite        -0.39     -8.20   -7.81  MgCO3
  MgCl2_2H2O      -13.57      1.58   15.15  MgCl2:2H2O
  MgCl2_4H2O       -5.82      1.30    7.12  MgCl2:4H2O
  Mirabilite       -3.90     -5.46   -1.56  Na2SO4:10H2O
  Misenite        -76.67    -87.48  -10.81  K8H6(SO4)7
  Nahcolite        -2.27    -13.01  -10.74  NaHCO3
  Natron           -7.83     -8.66   -0.82  Na2CO3:10H2O
  Nesquehonite     -3.46     -8.62   -5.17  MgCO3:3H2O
  Pentahydrite     -4.42     -5.70   -1.28  MgSO4:5H2O
  Pirssonite       -5.89    -15.12   -9.23  Na2Ca(CO3)2:2H2O
  Polyhalite      -10.50    -24.24  -13.74  K2MgCa2(SO4)4:2H2O
  Portlandite     -12.37    -17.56   -5.19  Ca(OH)2
  Schoenite       -11.71    -16.04   -4.33  K2Mg(SO4)2:6H2O
  Sylvite          -2.48     -1.66    0.82  KCl
  Syngenite        -8.42    -14.72   -6.29  K2Ca(SO4)2:H2O
  Thenardite       -3.78     -4.05   -0.27  Na2SO4
  Trona            -9.16    -20.55  -11.38  Na3H(CO3)2:2H2O

**For a gas, SI = log10(fugacity). Fugacity = pressure * phi / 1 atm.
  For ideal gases, phi = 1.

------------------
End of simulation.
------------------

------------------------------------
Reading input data for simulation 2.
------------------------------------

	PITZER
		 macinnes  false
	SOLUTION 1 Canadian Shield Brine T-93.
		 units	    mg/L
		 pH	    5
		 pe	    4
		 density    1.204
		 temp	    18
		 Ca	    64000.
		 Na	    45000.
		 Mg	    5100.
		 K	    199.
		 Sr	    1080.
		 Cl	    207000.
		 Br	    1760.
		 S	    284.
		 Alkalinity 19. as HCO3
	END
-------------------------------------------
Beginning of initial solution calculations.
-------------------------------------------

Initial solution 1.	Canadian Shield Brine T-93.

-----------------------------Solution composition------------------------------

	Elements           Molality       Moles

	Alkalinity        3.540e-04   3.540e-04
	Br                2.504e-02   2.504e-02
	Ca                1.815e+00   1.815e+00
	Cl                6.638e+00   6.638e+00
	K                 5.787e-03   5.787e-03
	Mg                2.386e-01   2.386e-01
	Na                2.225e+00   2.225e+00
	S                 3.361e-03   3.361e-03
	Sr                1.401e-02   1.401e-02

----------------------------Description of solution----------------------------

                                       pH  =   5.000    
                                       pe  =   4.000    
      Specific Conductance (µS/cm,  18°C)  = 197641
                          Density (g/cm³)  =   1.23179
                               Volume (L)  =   1.11185
                        Viscosity (mPa s)  =   2.47279
                        Activity of water  =   0.723
                 Ionic strength (mol/kgw)  =   8.590e+00
                       Mass of water (kg)  =   1.000e+00
                    Total carbon (mol/kg)  =   1.602e-02
                       Total CO2 (mol/kg)  =   1.602e-02
                         Temperature (°C)  =  18.00
                  Electrical balance (eq)  =  -3.031e-01
 Percent error, 100*(Cat-|An|)/(Cat+|An|)  =  -2.32
                               Iterations  =  27
                         Gamma iterations  =   7
                      Osmotic coefficient  =   1.63836
                         Density of water  =   0.99859
                                  Total H  = 1.110128e+02
                                  Total O  = 5.555205e+01

----------------------------Distribution of species----------------------------

                                                    Unscaled  Unscaled
                                Unscaled       Log       Log       Log    mole V
   Species          Molality    Activity  Molality  Activity     Gamma   cm³/mol

   H+              2.547e-06   1.000e-05    -5.594    -5.000     0.594      0.00
   OH-             5.726e-09   4.210e-10    -8.242    -9.376    -1.134      7.49
   H2O             5.551e+01   7.232e-01     1.744    -0.141     0.000     18.04
Br            2.504e-02
   Br-             2.504e-02   7.746e-02    -1.601    -1.111     0.490     26.05
C(4)          1.602e-02
   CO2             1.566e-02   4.541e-02    -1.805    -1.343     0.462     34.46
   HCO3-           3.499e-04   1.352e-03    -3.456    -2.869     0.587     29.58
   MgCO3           1.675e-06   1.675e-06    -5.776    -5.776     0.000    -17.08
   CO3-2           1.614e-06   5.305e-09    -5.792    -8.275    -2.483     10.96
Ca            1.815e+00
   Ca+2            1.815e+00   1.703e+00     0.259     0.231    -0.028    -13.90
Cl            6.638e+00
   Cl-             6.638e+00   1.337e+01     0.822     1.126     0.304     20.29
K             5.787e-03
   K+              5.787e-03   1.629e-03    -2.238    -2.788    -0.551     13.37
Mg            2.386e-01
   Mg+2            2.386e-01   4.115e-01    -0.622    -0.386     0.237    -16.59
   MgCO3           1.675e-06   1.675e-06    -5.776    -5.776     0.000    -17.08
   MgOH+           1.199e-07   2.471e-08    -6.921    -7.607    -0.686     (0)  
Na            2.225e+00
   Na+             2.225e+00   1.914e+00     0.347     0.282    -0.066      1.69
S(6)          3.361e-03
   SO4-2           3.361e-03   2.436e-05    -2.474    -4.613    -2.140     28.04
   HSO4-           1.420e-08   2.042e-08    -7.848    -7.690     0.158     41.77
Sr            1.401e-02
   Sr+2            1.401e-02   8.495e-03    -1.853    -2.071    -0.217    -11.99

------------------------------Saturation indices-------------------------------

  Phase               SI** log IAP   log K(291 K,   1 atm)

  Anhydrite        -0.22     -4.38   -4.16  CaSO4
  Aragonite         0.13     -8.04   -8.18  CaCO3
  Arcanite         -8.21    -10.19   -1.98  K2SO4
  Artinite         -9.55     10.66   20.21  Mg2CO3(OH)2:3H2O
  Bischofite       -3.66      1.02    4.68  MgCl2:6H2O
  Bloedite         -7.26     -9.61   -2.35  Na2Mg(SO4)2:4H2O
  Brucite          -8.17    -19.14  -10.97  Mg(OH)2
  Burkeite        -15.04    -15.81   -0.77  Na6CO3(SO4)2
  Calcite           0.35     -8.04   -8.39  CaCO3
  Carnallite       -5.03     -0.64    4.39  KMgCl3:6H2O
  Celestite        -0.06     -6.68   -6.62  SrSO4
  CO2(g)            0.03     -1.34   -1.38  CO2
  Dolomite          0.21    -16.71  -16.91  CaMg(CO3)2
  Epsomite         -4.08     -5.98   -1.90  MgSO4:7H2O
  Gaylussite       -7.04    -16.46   -9.42  CaNa2(CO3)2:5H2O
  Glaserite       -13.40    -17.31   -3.91  NaK3(SO4)2
  Glauberite       -3.13     -8.43   -5.30  Na2Ca(SO4)2
  Goergeyite       -2.45    -32.24  -29.79  K2Ca5(SO4)6H2O
  Gypsum           -0.07     -4.66   -4.60  CaSO4:2H2O
  H2O(g)           -1.83     -0.14    1.69  H2O
  Halite           -0.16      1.41    1.56  NaCl
  Hexahydrite      -4.30     -5.84   -1.55  MgSO4:6H2O
  Huntite          -3.43      7.60   11.02  CaMg3(CO3)4
  Kainite          -6.89     -7.08   -0.19  KMgClSO4:3H2O
  Kalicinite       -6.12    -16.06   -9.94  KHCO3
  Kieserite        -4.99     -5.14   -0.15  MgSO4:H2O
  Labile_S         -7.09    -12.76   -5.67  Na4Ca(SO4)3:2H2O
  Leonhardite      -4.68     -5.56   -0.89  MgSO4:4H2O
  Leonite         -11.77    -15.75   -3.98  K2Mg(SO4)2:4H2O
  Magnesite        -0.85     -8.66   -7.81  MgCO3
  MgCl2_2H2O      -13.57      1.58   15.15  MgCl2:2H2O
  MgCl2_4H2O       -5.82      1.30    7.12  MgCl2:4H2O
  Mirabilite       -3.90     -5.46   -1.56  Na2SO4:10H2O
  Misenite        -73.79    -84.60  -10.81  K8H6(SO4)7
  Nahcolite        -2.25    -12.99  -10.74  NaHCO3
  Natron           -8.29     -9.12   -0.82  Na2CO3:10H2O
  Nesquehonite     -3.92     -9.08   -5.17  MgCO3:3H2O
  Pentahydrite     -4.42     -5.70   -1.28  MgSO4:5H2O
  Pirssonite       -6.80    -16.04   -9.23  Na2Ca(CO3)2:2H2O
  Polyhalite      -10.49    -24.23  -13.74  K2MgCa2(SO4)4:2H2O
  Portlandite     -13.33    -18.52   -5.19  Ca(OH)2
  Schoenite       -11.71    -16.03   -4.33  K2Mg(SO4)2:6H2O
  Sylvite          -2.48     -1.66    0.82  KCl
  Syngenite        -8.42    -14.71   -6.29  K2Ca(SO4)2:H2O
  Thenardite       -3.78     -4.05   -0.27  Na2SO4
  Trona            -9.60    -20.99  -11.38  Na3H(CO3)2:2H2O

**For a gas, SI = log10(fugacity). Fugacity = pressure * phi / 1 atm.
  For ideal gases, phi = 1.

------------------
End of simulation.
------------------

------------------------------------
Reading input data for simulation 3.
------------------------------------

	PITZER
		 macinnes  true
	SOLUTION 1 Canadian Shield Brine T-93.
		 units	    mg/L
		 pH	    5
		 pe	    4
		 density    1.204
		 temp	    18
		 Ca	    64000.
		 Na	    45000.
		 Mg	    5100.
		 K	    199.
		 Sr	    1080.
		 Cl	    207000.
		 Br	    1760.
		 S	    284.
		 Alkalinity 19. as HCO3
	EQUILIBRIUM_PHASES
		Calcite	    0	CO2(g)	10.
	REACTION
	CO2 1
	-0.00437
	END
-------------------------------------------
Beginning of initial solution calculations.
-------------------------------------------

Initial solution 1.	Canadian Shield Brine T-93.

-----------------------------Solution composition------------------------------

	Elements           Molality       Moles

	Alkalinity        3.540e-04   3.540e-04
	Br                2.504e-02   2.504e-02
	Ca                1.815e+00   1.815e+00
	Cl                6.638e+00   6.638e+00
	K                 5.787e-03   5.787e-03
	Mg                2.386e-01   2.386e-01
	Na                2.225e+00   2.225e+00
	S                 3.361e-03   3.361e-03
	Sr                1.401e-02   1.401e-02

----------------------------Description of solution----------------------------

                                       pH  =   5.000    
                                       pe  =   4.000    
      Specific Conductance (µS/cm,  18°C)  = 197895
                          Density (g/cm³)  =   1.23177
                               Volume (L)  =   1.11148
                        Viscosity (mPa s)  =   2.47086
                        Activity of water  =   0.723
                 Ionic strength (mol/kgw)  =   8.590e+00
                       Mass of water (kg)  =   1.000e+00
                    Total carbon (mol/kg)  =   5.335e-03
                       Total CO2 (mol/kg)  =   5.335e-03
                         Temperature (°C)  =  18.00
                  Electrical balance (eq)  =  -3.031e-01
 Percent error, 100*(Cat-|An|)/(Cat+|An|)  =  -2.32
                               Iterations  =  26
                         Gamma iterations  =   7
                      Osmotic coefficient  =   1.63794
                         Density of water  =   0.99859
                                  Total H  = 1.110128e+02
                                  Total O  = 5.553068e+01

----------------------------Distribution of species----------------------------

                                                    MacInnes  MacInnes
                                MacInnes       Log       Log       Log    mole V
   Species          Molality    Activity  Molality  Activity     Gamma   cm³/mol

   H+              8.465e-07   1.000e-05    -6.072    -5.000     1.072      0.00
   OH-             1.724e-08   4.211e-10    -7.764    -9.376    -1.612      7.49
   H2O             5.551e+01   7.234e-01     1.744    -0.141     0.000     18.04
Br            2.504e-02
   Br-             2.504e-02   2.574e-02    -1.601    -1.589     0.012     26.05
C(4)          5.335e-03
   CO2             4.990e-03   1.447e-02    -2.302    -1.840     0.462     34.46
   HCO3-           3.355e-04   4.310e-04    -3.474    -3.366     0.109     29.58
   MgCO3           4.815e-06   4.815e-06    -5.317    -5.317     0.000    -17.08
   CO3-2           4.658e-06   1.691e-09    -5.332    -8.772    -3.440     10.96
Ca            1.815e+00
   Ca+2            1.815e+00   1.536e+01     0.259     1.186     0.927    -13.90
Cl            6.638e+00
   Cl-             6.638e+00   4.443e+00     0.822     0.648    -0.174     20.29
K             5.787e-03
   K+              5.787e-03   4.895e-03    -2.238    -2.310    -0.073     13.37
Mg            2.386e-01
   Mg+2            2.386e-01   3.711e+00    -0.622     0.569     1.192    -16.59
   MgCO3           4.815e-06   4.815e-06    -5.317    -5.317     0.000    -17.08
   MgOH+           3.595e-07   2.229e-07    -6.444    -6.652    -0.208     (0)  
Na            2.225e+00
   Na+             2.225e+00   5.747e+00     0.347     0.759     0.412      1.69
S(6)          3.361e-03
   SO4-2           3.361e-03   2.687e-06    -2.474    -5.571    -3.097     28.04
   HSO4-           4.712e-09   2.253e-09    -8.327    -8.647    -0.321     41.77
Sr            1.401e-02
   Sr+2            1.401e-02   7.691e-02    -1.853    -1.114     0.739    -11.99

------------------------------Saturation indices-------------------------------

  Phase               SI** log IAP   log K(291 K,   1 atm)

  Anhydrite        -0.22     -4.38   -4.16  CaSO4
  Aragonite         0.59     -7.59   -8.18  CaCO3
  Arcanite         -8.21    -10.19   -1.98  K2SO4
  Artinite         -8.14     12.07   20.21  Mg2CO3(OH)2:3H2O
  Bischofite       -3.66      1.02    4.68  MgCl2:6H2O
  Bloedite         -7.27     -9.62   -2.35  Na2Mg(SO4)2:4H2O
  Brucite          -7.22    -18.18  -10.97  Mg(OH)2
  Burkeite        -14.58    -15.36   -0.77  Na6CO3(SO4)2
  Calcite           0.81     -7.59   -8.39  CaCO3
  Carnallite       -5.03     -0.64    4.39  KMgCl3:6H2O
  Celestite        -0.06     -6.68   -6.62  SrSO4
  CO2(g)           -0.46     -1.84   -1.38  CO2
  Dolomite          1.13    -15.79  -16.91  CaMg(CO3)2
  Epsomite         -4.08     -5.99   -1.90  MgSO4:7H2O
  Gaylussite       -6.12    -15.54   -9.42  CaNa2(CO3)2:5H2O
  Glaserite       -13.40    -17.31   -3.91  NaK3(SO4)2
  Glauberite       -3.14     -8.44   -5.30  Na2Ca(SO4)2
  Goergeyite       -2.47    -32.25  -29.79  K2Ca5(SO4)6H2O
  Gypsum           -0.07     -4.67   -4.60  CaSO4:2H2O
  H2O(g)           -1.83     -0.14    1.69  H2O
  Halite           -0.16      1.41    1.56  NaCl
  Hexahydrite      -4.30     -5.84   -1.55  MgSO4:6H2O
  Huntite          -1.59      9.43   11.02  CaMg3(CO3)4
  Kainite          -6.89     -7.09   -0.19  KMgClSO4:3H2O
  Kalicinite       -6.14    -16.08   -9.94  KHCO3
  Kieserite        -4.99     -5.14   -0.15  MgSO4:H2O
  Labile_S         -7.10    -12.77   -5.67  Na4Ca(SO4)3:2H2O
  Leonhardite      -4.68     -5.56   -0.89  MgSO4:4H2O
  Leonite         -11.78    -15.75   -3.98  K2Mg(SO4)2:4H2O
  Magnesite        -0.39     -8.20   -7.81  MgCO3
  MgCl2_2H2O      -13.57      1.58   15.15  MgCl2:2H2O
  MgCl2_4H2O       -5.82      1.30    7.12  MgCl2:4H2O
  Mirabilite       -3.90     -5.46   -1.56  Na2SO4:10H2O
  Misenite        -76.67    -87.48  -10.81  K8H6(SO4)7
  Nahcolite        -2.27    -13.01  -10.74  NaHCO3
  Natron           -7.83     -8.66   -0.82  Na2CO3:10H2O
  Nesquehonite     -3.46     -8.62   -5.17  MgCO3:3H2O
  Pentahydrite     -4.42     -5.70   -1.28  MgSO4:5H2O
  Pirssonite       -5.89    -15.12   -9.23  Na2Ca(CO3)2:2H2O
  Polyhalite      -10.50    -24.24  -13.74  K2MgCa2(SO4)4:2H2O
  Portlandite     -12.37    -17.56   -5.19  Ca(OH)2
  Schoenite       -11.71    -16.04   -4.33  K2Mg(SO4)2:6H2O
  Sylvite          -2.48     -1.66    0.82  KCl
  Syngenite        -8.42    -14.72   -6.29  K2Ca(SO4)2:H2O
  Thenardite       -3.78     -4.05   -0.27  Na2SO4
  Trona            -9.16    -20.55  -11.38  Na3H(CO3)2:2H2O

**For a gas, SI = log10(fugacity). Fugacity = pressure * phi / 1 atm.
  For ideal gases, phi = 1.

-----------------------------------------
Beginning of batch-reaction calculations.
-----------------------------------------

Reaction step 1.

Using solution 1.	Canadian Shield Brine T-93.
Using pure phase assemblage 1.	
Using reaction 1.	

Reaction 1.	

	 -4.370e-03 moles of the following reaction have been added:

	                 Relative
	Reactant            moles

	CO2                  1.00000

	                 Relative
	Element             moles
	C                    1.00000
	O                    2.00000

-------------------------------Phase assemblage--------------------------------

                                                      Moles in assemblage
Phase               SI  log IAP  log K(T, P)   Initial       Final       Delta

Calcite           0.00    -8.39     -8.39
	 CO2                is reactant       1.000e+01   9.964e+00  -3.606e-02

-----------------------------Solution composition------------------------------

	Elements           Molality       Moles

	Br                2.504e-02   2.504e-02
	C                 3.703e-02   3.703e-02
	Ca                1.815e+00   1.815e+00
	Cl                6.638e+00   6.638e+00
	K                 5.787e-03   5.787e-03
	Mg                2.386e-01   2.386e-01
	Na                2.225e+00   2.225e+00
	S                 3.361e-03   3.361e-03
	Sr                1.401e-02   1.401e-02

----------------------------Description of solution----------------------------

                                       pH  =   4.161      Charge balance
                                       pe  =   4.000      Adjusted to redox equilibrium
      Specific Conductance (µS/cm,  18°C)  = 197142
                          Density (g/cm³)  =   1.23182
                               Volume (L)  =   1.11257
                        Viscosity (mPa s)  =   2.47657
                        Activity of water  =   0.723
                 Ionic strength (mol/kgw)  =   8.590e+00
                       Mass of water (kg)  =   1.000e+00
                 Total alkalinity (eq/kg)  =   3.540e-04
                       Total CO2 (mol/kg)  =   3.703e-02
                         Temperature (°C)  =  18.00
                  Electrical balance (eq)  =  -3.031e-01
 Percent error, 100*(Cat-|An|)/(Cat+|An|)  =  -2.32
                               Iterations  =  10
                         Gamma iterations  =   3
                      Osmotic coefficient  =   1.63917
                         Density of water  =   0.99859
                                  Total H  = 1.110128e+02
                                  Total O  = 5.559406e+01

----------------------------Distribution of species----------------------------

                                                    MacInnes  MacInnes
                                MacInnes       Log       Log       Log    mole V
   Species          Molality    Activity  Molality  Activity     Gamma   cm³/mol

   H+              5.840e-06   6.897e-05    -5.234    -4.161     1.072      0.00
   OH-             2.495e-09   6.099e-11    -8.603   -10.215    -1.612      7.49
   H2O             5.551e+01   7.226e-01     1.744    -0.141     0.000     18.04
Br            2.504e-02
   Br-             2.504e-02   2.575e-02    -1.601    -1.589     0.012     26.05
C(4)          3.703e-02
   CO2             3.667e-02   1.063e-01    -1.436    -0.973     0.462     34.46
   HCO3-           3.569e-04   4.586e-04    -3.447    -3.339     0.109     29.58
   MgCO3           7.509e-07   7.509e-07    -6.124    -6.124     0.000    -17.08
   CO3-2           7.181e-07   2.609e-10    -6.144    -9.584    -3.440     10.96
Ca            1.815e+00
   Ca+2            1.815e+00   1.553e+01     0.259     1.191     0.932    -13.90
Cl            6.638e+00
   Cl-             6.638e+00   4.443e+00     0.822     0.648    -0.174     20.29
K             5.787e-03
   K+              5.787e-03   4.910e-03    -2.238    -2.309    -0.071     13.37
Mg            2.386e-01
   Mg+2            2.386e-01   3.752e+00    -0.622     0.574     1.197    -16.59
   MgCO3           7.509e-07   7.509e-07    -6.124    -6.124     0.000    -17.08
   MgOH+           5.266e-08   3.264e-08    -7.279    -7.486    -0.208     (0)  
Na            2.225e+00
   Na+             2.225e+00   5.776e+00     0.347     0.762     0.414      1.69
S(6)          3.361e-03
   SO4-2           3.361e-03   2.699e-06    -2.474    -5.569    -3.095     28.04
   HSO4-           3.263e-08   1.560e-08    -7.486    -7.807    -0.320     41.77
Sr            1.401e-02
   Sr+2            1.401e-02   7.686e-02    -1.853    -1.114     0.739    -11.99

------------------------------Saturation indices-------------------------------

  Phase               SI** log IAP   log K(291 K,   1 atm)

  Anhydrite        -0.22     -4.38   -4.16  CaSO4
  Aragonite        -0.21     -8.39   -8.18  CaCO3
  Arcanite         -8.21    -10.19   -1.98  K2SO4
  Artinite        -10.62      9.59   20.21  Mg2CO3(OH)2:3H2O
  Bischofite       -3.66      1.02    4.68  MgCl2:6H2O
  Bloedite         -7.26     -9.60   -2.35  Na2Mg(SO4)2:4H2O
  Brucite          -8.89    -19.86  -10.97  Mg(OH)2
  Burkeite        -15.38    -16.15   -0.77  Na6CO3(SO4)2
  Calcite           0.00     -8.39   -8.39  CaCO3
  Carnallite       -5.03     -0.64    4.39  KMgCl3:6H2O
  Celestite        -0.06     -6.68   -6.62  SrSO4
  CO2(g)            0.40     -0.97   -1.38  CO2
  Dolomite         -0.49    -17.40  -16.91  CaMg(CO3)2
  Epsomite         -4.08     -5.98   -1.90  MgSO4:7H2O
  Gaylussite       -7.74    -17.16   -9.42  CaNa2(CO3)2:5H2O
  Glaserite       -13.39    -17.30   -3.91  NaK3(SO4)2
  Glauberite       -3.13     -8.42   -5.30  Na2Ca(SO4)2
  Goergeyite       -2.43    -32.22  -29.79  K2Ca5(SO4)6H2O
  Gypsum           -0.06     -4.66   -4.60  CaSO4:2H2O
  H2O(g)           -1.83     -0.14    1.69  H2O
  Halite           -0.16      1.41    1.56  NaCl
  Hexahydrite      -4.29     -5.84   -1.55  MgSO4:6H2O
  Huntite          -4.82      6.20   11.02  CaMg3(CO3)4
  Kainite          -6.89     -7.08   -0.19  KMgClSO4:3H2O
  Kalicinite       -6.11    -16.05   -9.94  KHCO3
  Kieserite        -4.98     -5.14   -0.15  MgSO4:H2O
  Labile_S         -7.08    -12.75   -5.67  Na4Ca(SO4)3:2H2O
  Leonhardite      -4.67     -5.56   -0.89  MgSO4:4H2O
  Leonite         -11.77    -15.75   -3.98  K2Mg(SO4)2:4H2O
  Magnesite        -1.20     -9.01   -7.81  MgCO3
  MgCl2_2H2O      -13.57      1.59   15.15  MgCl2:2H2O
  MgCl2_4H2O       -5.81      1.31    7.12  MgCl2:4H2O
  Mirabilite       -3.90     -5.46   -1.56  Na2SO4:10H2O
  Misenite        -71.62    -82.42  -10.81  K8H6(SO4)7
  Nahcolite        -2.24    -12.98  -10.74  NaHCO3
  Natron           -8.65     -9.47   -0.82  Na2CO3:10H2O
  Nesquehonite     -4.27     -9.43   -5.17  MgCO3:3H2O
  Pentahydrite     -4.42     -5.70   -1.28  MgSO4:5H2O
  Pirssonite       -7.50    -16.74   -9.23  Na2Ca(CO3)2:2H2O
  Polyhalite      -10.48    -24.22  -13.74  K2MgCa2(SO4)4:2H2O
  Portlandite     -14.05    -19.24   -5.19  Ca(OH)2
  Schoenite       -11.70    -16.03   -4.33  K2Mg(SO4)2:6H2O
  Sylvite          -2.48     -1.66    0.82  KCl
  Syngenite        -8.41    -14.71   -6.29  K2Ca(SO4)2:H2O
  Thenardite       -3.78     -4.05   -0.27  Na2SO4
  Trona            -9.94    -21.33  -11.38  Na3H(CO3)2:2H2O

**For a gas, SI = log10(fugacity). Fugacity = pressure * phi / 1 atm.
  For ideal gases, phi = 1.

------------------
End of simulation.
------------------

------------------------------------
Reading input data for simulation 4.
------------------------------------

	PITZER
		 macinnes  false
	SOLUTION 1 Canadian Shield Brine T-93.
		 units	    mg/L
		 pH	    5
		 pe	    4
		 density    1.204
		 temp	    18
		 Ca	    64000.
		 Na	    45000.
		 Mg	    5100.
		 K	    199.
		 Sr	    1080.
		 Cl	    207000.
		 Br	    1760.
		 S	    284.
		 Alkalinity 19. as HCO3
	EQUILIBRIUM_PHASES
		Calcite	    0	CO2(g)	10.
	REACTION
	CO2 1
	-0.0128
	END
-------------------------------------------
Beginning of initial solution calculations.
-------------------------------------------

Initial solution 1.	Canadian Shield Brine T-93.

-----------------------------Solution composition------------------------------

	Elements           Molality       Moles

	Alkalinity        3.540e-04   3.540e-04
	Br                2.504e-02   2.504e-02
	Ca                1.815e+00   1.815e+00
	Cl                6.638e+00   6.638e+00
	K                 5.787e-03   5.787e-03
	Mg                2.386e-01   2.386e-01
	Na                2.225e+00   2.225e+00
	S                 3.361e-03   3.361e-03
	Sr                1.401e-02   1.401e-02

----------------------------Description of solution----------------------------

                                       pH  =   5.000    
                                       pe  =   4.000    
      Specific Conductance (µS/cm,  18°C)  = 197641
                          Density (g/cm³)  =   1.23179
                               Volume (L)  =   1.11185
                        Viscosity (mPa s)  =   2.47279
                        Activity of water  =   0.723
                 Ionic strength (mol/kgw)  =   8.590e+00
                       Mass of water (kg)  =   1.000e+00
                    Total carbon (mol/kg)  =   1.602e-02
                       Total CO2 (mol/kg)  =   1.602e-02
                         Temperature (°C)  =  18.00
                  Electrical balance (eq)  =  -3.031e-01
 Percent error, 100*(Cat-|An|)/(Cat+|An|)  =  -2.32
                               Iterations  =  27
                         Gamma iterations  =   7
                      Osmotic coefficient  =   1.63836
                         Density of water  =   0.99859
                                  Total H  = 1.110128e+02
                                  Total O  = 5.555205e+01

----------------------------Distribution of species----------------------------

                                                    Unscaled  Unscaled
                                Unscaled       Log       Log       Log    mole V
   Species          Molality    Activity  Molality  Activity     Gamma   cm³/mol

   H+              2.547e-06   1.000e-05    -5.594    -5.000     0.594      0.00
   OH-             5.726e-09   4.210e-10    -8.242    -9.376    -1.134      7.49
   H2O             5.551e+01   7.232e-01     1.744    -0.141     0.000     18.04
Br            2.504e-02
   Br-             2.504e-02   7.746e-02    -1.601    -1.111     0.490     26.05
C(4)          1.602e-02
   CO2             1.566e-02   4.541e-02    -1.805    -1.343     0.462     34.46
   HCO3-           3.499e-04   1.352e-03    -3.456    -2.869     0.587     29.58
   MgCO3           1.675e-06   1.675e-06    -5.776    -5.776     0.000    -17.08
   CO3-2           1.614e-06   5.305e-09    -5.792    -8.275    -2.483     10.96
Ca            1.815e+00
   Ca+2            1.815e+00   1.703e+00     0.259     0.231    -0.028    -13.90
Cl            6.638e+00
   Cl-             6.638e+00   1.337e+01     0.822     1.126     0.304     20.29
K             5.787e-03
   K+              5.787e-03   1.629e-03    -2.238    -2.788    -0.551     13.37
Mg            2.386e-01
   Mg+2            2.386e-01   4.115e-01    -0.622    -0.386     0.237    -16.59
   MgCO3           1.675e-06   1.675e-06    -5.776    -5.776     0.000    -17.08
   MgOH+           1.199e-07   2.471e-08    -6.921    -7.607    -0.686     (0)  
Na            2.225e+00
   Na+             2.225e+00   1.914e+00     0.347     0.282    -0.066      1.69
S(6)          3.361e-03
   SO4-2           3.361e-03   2.436e-05    -2.474    -4.613    -2.140     28.04
   HSO4-           1.420e-08   2.042e-08    -7.848    -7.690     0.158     41.77
Sr            1.401e-02
   Sr+2            1.401e-02   8.495e-03    -1.853    -2.071    -0.217    -11.99

------------------------------Saturation indices-------------------------------

  Phase               SI** log IAP   log K(291 K,   1 atm)

  Anhydrite        -0.22     -4.38   -4.16  CaSO4
  Aragonite         0.13     -8.04   -8.18  CaCO3
  Arcanite         -8.21    -10.19   -1.98  K2SO4
  Artinite         -9.55     10.66   20.21  Mg2CO3(OH)2:3H2O
  Bischofite       -3.66      1.02    4.68  MgCl2:6H2O
  Bloedite         -7.26     -9.61   -2.35  Na2Mg(SO4)2:4H2O
  Brucite          -8.17    -19.14  -10.97  Mg(OH)2
  Burkeite        -15.04    -15.81   -0.77  Na6CO3(SO4)2
  Calcite           0.35     -8.04   -8.39  CaCO3
  Carnallite       -5.03     -0.64    4.39  KMgCl3:6H2O
  Celestite        -0.06     -6.68   -6.62  SrSO4
  CO2(g)            0.03     -1.34   -1.38  CO2
  Dolomite          0.21    -16.71  -16.91  CaMg(CO3)2
  Epsomite         -4.08     -5.98   -1.90  MgSO4:7H2O
  Gaylussite       -7.04    -16.46   -9.42  CaNa2(CO3)2:5H2O
  Glaserite       -13.40    -17.31   -3.91  NaK3(SO4)2
  Glauberite       -3.13     -8.43   -5.30  Na2Ca(SO4)2
  Goergeyite       -2.45    -32.24  -29.79  K2Ca5(SO4)6H2O
  Gypsum           -0.07     -4.66   -4.60  CaSO4:2H2O
  H2O(g)           -1.83     -0.14    1.69  H2O
  Halite           -0.16      1.41    1.56  NaCl
  Hexahydrite      -4.30     -5.84   -1.55  MgSO4:6H2O
  Huntite          -3.43      7.60   11.02  CaMg3(CO3)4
  Kainite          -6.89     -7.08   -0.19  KMgClSO4:3H2O
  Kalicinite       -6.12    -16.06   -9.94  KHCO3
  Kieserite        -4.99     -5.14   -0.15  MgSO4:H2O
  Labile_S         -7.09    -12.76   -5.67  Na4Ca(SO4)3:2H2O
  Leonhardite      -4.68     -5.56   -0.89  MgSO4:4H2O
  Leonite         -11.77    -15.75   -3.98  K2Mg(SO4)2:4H2O
  Magnesite        -0.85     -8.66   -7.81  MgCO3
  MgCl2_2H2O      -13.57      1.58   15.15  MgCl2:2H2O
  MgCl2_4H2O       -5.82      1.30    7.12  MgCl2:4H2O
  Mirabilite       -3.90     -5.46   -1.56  Na2SO4:10H2O
  Misenite        -73.79    -84.60  -10.81  K8H6(SO4)7
  Nahcolite        -2.25    -12.99  -10.74  NaHCO3
  Natron           -8.29     -9.12   -0.82  Na2CO3:10H2O
  Nesquehonite     -3.92     -9.08   -5.17  MgCO3:3H2O
  Pentahydrite     -4.42     -5.70   -1.28  MgSO4:5H2O
  Pirssonite       -6.80    -16.04   -9.23  Na2Ca(CO3)2:2H2O
  Polyhalite      -10.49    -24.23  -13.74  K2MgCa2(SO4)4:2H2O
  Portlandite     -13.33    -18.52   -5.19  Ca(OH)2
  Schoenite       -11.71    -16.03   -4.33  K2Mg(SO4)2:6H2O
  Sylvite          -2.48     -1.66    0.82  KCl
  Syngenite        -8.42    -14.71   -6.29  K2Ca(SO4)2:H2O
  Thenardite       -3.78     -4.05   -0.27  Na2SO4
  Trona            -9.60    -20.99  -11.38  Na3H(CO3)2:2H2O

**For a gas, SI = log10(fugacity). Fugacity = pressure * phi / 1 atm.
  For ideal gases, phi = 1.

-----------------------------------------
Beginning of batch-reaction calculations.
-----------------------------------------

Reaction step 1.

Using solution 1.	Canadian Shield Brine T-93.
Using pure phase assemblage 1.	
Using reaction 1.	

Reaction 1.	

	 -1.280e-02 moles of the following reaction have been added:

	                 Relative
	Reactant            moles

	CO2                  1.00000

	                 Relative
	Element             moles
	C                    1.00000
	O                    2.00000

-------------------------------Phase assemblage--------------------------------

                                                      Moles in assemblage
Phase               SI  log IAP  log K(T, P)   Initial       Final       Delta

Calcite           0.00    -8.39     -8.39
	 CO2                is reactant       1.000e+01   9.966e+00  -3.381e-02

-----------------------------Solution composition------------------------------

	Elements           Molality       Moles

	Br                2.504e-02   2.504e-02
	C                 3.703e-02   3.703e-02
	Ca                1.815e+00   1.815e+00
	Cl                6.638e+00   6.638e+00
	K                 5.787e-03   5.787e-03
	Mg                2.386e-01   2.386e-01
	Na                2.225e+00   2.225e+00
	S                 3.361e-03   3.361e-03
	Sr                1.401e-02   1.401e-02

----------------------------Description of solution----------------------------

                                       pH  =   4.640      Charge balance
                                       pe  =   4.000      Adjusted to redox equilibrium
      Specific Conductance (µS/cm,  18°C)  = 197142
                          Density (g/cm³)  =   1.23182
                               Volume (L)  =   1.11257
                        Viscosity (mPa s)  =   2.47657
                        Activity of water  =   0.723
                 Ionic strength (mol/kgw)  =   8.590e+00
                       Mass of water (kg)  =   1.000e+00
                 Total alkalinity (eq/kg)  =   3.540e-04
                       Total CO2 (mol/kg)  =   3.703e-02
                         Temperature (°C)  =  18.00
                  Electrical balance (eq)  =  -3.031e-01
 Percent error, 100*(Cat-|An|)/(Cat+|An|)  =  -2.32
                               Iterations  =  11
                         Gamma iterations  =   3
                      Osmotic coefficient  =   1.63917
                         Density of water  =   0.99859
                                  Total H  = 1.110128e+02
                                  Total O  = 5.559407e+01

----------------------------Distribution of species----------------------------

                                                    Unscaled  Unscaled
                                Unscaled       Log       Log       Log    mole V
   Species          Molality    Activity  Molality  Activity     Gamma   cm³/mol

   H+              5.840e-06   2.293e-05    -5.234    -4.640     0.594      0.00
   OH-             2.495e-09   1.835e-10    -8.603    -9.736    -1.134      7.49
   H2O             5.551e+01   7.226e-01     1.744    -0.141     0.000     18.04
Br            2.504e-02
   Br-             2.504e-02   7.746e-02    -1.601    -1.111     0.490     26.05
C(4)          3.703e-02
   CO2             3.667e-02   1.063e-01    -1.436    -0.973     0.462     34.46
   HCO3-           3.569e-04   1.379e-03    -3.447    -2.860     0.587     29.58
   MgCO3           7.509e-07   7.509e-07    -6.124    -6.124     0.000    -17.08
   CO3-2           7.181e-07   2.360e-09    -6.144    -8.627    -2.483     10.96
Ca            1.815e+00
   Ca+2            1.815e+00   1.716e+00     0.259     0.234    -0.024    -13.90
Cl            6.638e+00
   Cl-             6.638e+00   1.337e+01     0.822     1.126     0.304     20.29
K             5.787e-03
   K+              5.787e-03   1.632e-03    -2.238    -2.787    -0.550     13.37
Mg            2.386e-01
   Mg+2            2.386e-01   4.146e-01    -0.622    -0.382     0.240    -16.59
   MgCO3           7.509e-07   7.509e-07    -6.124    -6.124     0.000    -17.08
   MgOH+           5.266e-08   1.085e-08    -7.279    -7.965    -0.686     (0)  
Na            2.225e+00
   Na+             2.225e+00   1.920e+00     0.347     0.283    -0.064      1.69
S(6)          3.361e-03
   SO4-2           3.361e-03   2.442e-05    -2.474    -4.612    -2.139     28.04
   HSO4-           3.263e-08   4.693e-08    -7.486    -7.329     0.158     41.77
Sr            1.401e-02
   Sr+2            1.401e-02   8.495e-03    -1.853    -2.071    -0.217    -11.99

------------------------------Saturation indices-------------------------------

  Phase               SI** log IAP   log K(291 K,   1 atm)

  Anhydrite        -0.22     -4.38   -4.16  CaSO4
  Aragonite        -0.21     -8.39   -8.18  CaCO3
  Arcanite         -8.21    -10.19   -1.98  K2SO4
  Artinite        -10.62      9.59   20.21  Mg2CO3(OH)2:3H2O
  Bischofite       -3.66      1.02    4.68  MgCl2:6H2O
  Bloedite         -7.26     -9.60   -2.35  Na2Mg(SO4)2:4H2O
  Brucite          -8.89    -19.86  -10.97  Mg(OH)2
  Burkeite        -15.38    -16.15   -0.77  Na6CO3(SO4)2
  Calcite           0.00     -8.39   -8.39  CaCO3
  Carnallite       -5.03     -0.64    4.39  KMgCl3:6H2O
  Celestite        -0.06     -6.68   -6.62  SrSO4
  CO2(g)            0.40     -0.97   -1.38  CO2
  Dolomite         -0.49    -17.40  -16.91  CaMg(CO3)2
  Epsomite         -4.08     -5.98   -1.90  MgSO4:7H2O
  Gaylussite       -7.74    -17.16   -9.42  CaNa2(CO3)2:5H2O
  Glaserite       -13.39    -17.30   -3.91  NaK3(SO4)2
  Glauberite       -3.13     -8.42   -5.30  Na2Ca(SO4)2
  Goergeyite       -2.43    -32.22  -29.79  K2Ca5(SO4)6H2O
  Gypsum           -0.06     -4.66   -4.60  CaSO4:2H2O
  H2O(g)           -1.83     -0.14    1.69  H2O
  Halite           -0.16      1.41    1.56  NaCl
  Hexahydrite      -4.29     -5.84   -1.55  MgSO4:6H2O
  Huntite          -4.82      6.20   11.02  CaMg3(CO3)4
  Kainite          -6.89     -7.08   -0.19  KMgClSO4:3H2O
  Kalicinite       -6.11    -16.05   -9.94  KHCO3
  Kieserite        -4.98     -5.14   -0.15  MgSO4:H2O
  Labile_S         -7.08    -12.75   -5.67  Na4Ca(SO4)3:2H2O
  Leonhardite      -4.67     -5.56   -0.89  MgSO4:4H2O
  Leonite         -11.77    -15.75   -3.98  K2Mg(SO4)2:4H2O
  Magnesite        -1.20     -9.01   -7.81  MgCO3
  MgCl2_2H2O      -13.57      1.59   15.15  MgCl2:2H2O
  MgCl2_4H2O       -5.81      1.31    7.12  MgCl2:4H2O
  Mirabilite       -3.90     -5.46   -1.56  Na2SO4:10H2O
  Misenite        -71.62    -82.42  -10.81  K8H6(SO4)7
  Nahcolite        -2.24    -12.98  -10.74  NaHCO3
  Natron           -8.65     -9.47   -0.82  Na2CO3:10H2O
  Nesquehonite     -4.27     -9.43   -5.17  MgCO3:3H2O
  Pentahydrite     -4.42     -5.70   -1.28  MgSO4:5H2O
  Pirssonite       -7.50    -16.74   -9.23  Na2Ca(CO3)2:2H2O
  Polyhalite      -10.48    -24.22  -13.74  K2MgCa2(SO4)4:2H2O
  Portlandite     -14.05    -19.24   -5.19  Ca(OH)2
  Schoenite       -11.70    -16.03   -4.33  K2Mg(SO4)2:6H2O
  Sylvite          -2.48     -1.66    0.82  KCl
  Syngenite        -8.41    -14.71   -6.29  K2Ca(SO4)2:H2O
  Thenardite       -3.78     -4.05   -0.27  Na2SO4
  Trona            -9.94    -21.33  -11.38  Na3H(CO3)2:2H2O

**For a gas, SI = log10(fugacity). Fugacity = pressure * phi / 1 atm.
  For ideal gases, phi = 1.

------------------
End of simulation.
------------------

------------------------------------
Reading input data for simulation 5.
------------------------------------

	SOLUTION 1	Pure water
	EQUILIBRIUM_PHASES
		Anhydrite
		Bischofite	0	100.
		Carnallite
		Halite
		Kieserite
		Magnesite
		CO2(g)		-3.5
	END
-------------------------------------------
Beginning of initial solution calculations.
-------------------------------------------

Initial solution 1.	Pure water

-----------------------------Solution composition------------------------------

	Elements           Molality       Moles

	Pure water     

----------------------------Description of solution----------------------------

                                       pH  =   7.000    
                                       pe  =   4.000    
      Specific Conductance (µS/cm,  25°C)  = 0
                          Density (g/cm³)  =   0.99704
                               Volume (L)  =   1.00297
                        Viscosity (mPa s)  =   0.89002
                        Activity of water  =   1.000
                 Ionic strength (mol/kgw)  =   1.006e-07
                       Mass of water (kg)  =   1.000e+00
                 Total alkalinity (eq/kg)  =   1.216e-09
                         Temperature (°C)  =  25.00
                  Electrical balance (eq)  =  -1.216e-09
 Percent error, 100*(Cat-|An|)/(Cat+|An|)  =  -0.60
                               Iterations  =   3
                         Gamma iterations  =   2
                      Osmotic coefficient  =   0.99988
                         Density of water  =   0.99704
                                  Total H  = 1.110124e+02
                                  Total O  = 5.550622e+01

----------------------------Distribution of species----------------------------

                                                    Unscaled  Unscaled
                                Unscaled       Log       Log       Log    mole V
   Species          Molality    Activity  Molality  Activity     Gamma   cm³/mol

   OH-             1.013e-07   1.012e-07    -6.995    -6.995    -0.000     -4.14
   H+              1.000e-07   1.000e-07    -7.000    -7.000    -0.000      0.00
   H2O             5.551e+01   1.000e+00     1.744    -0.000     0.000     18.07

------------------------------Saturation indices-------------------------------

  Phase               SI** log IAP   log K(298 K,   1 atm)

  H2O(g)           -1.50     -0.00    1.50  H2O

**For a gas, SI = log10(fugacity). Fugacity = pressure * phi / 1 atm.
  For ideal gases, phi = 1.

-----------------------------------------
Beginning of batch-reaction calculations.
-----------------------------------------

Reaction step 1.

WARNING: Maximum iterations exceeded, 200

WARNING: Numerical method failed with this set of convergence parameters.

WARNING: Trying smaller step size, pe step size 10, 5 ... 

Using solution 1.	Pure water
Using pure phase assemblage 1.	

-------------------------------Phase assemblage--------------------------------

                                                      Moles in assemblage
Phase               SI  log IAP  log K(T, P)   Initial       Final       Delta

Anhydrite         0.00    -4.25     -4.25    1.000e+01   9.995e+00  -4.950e-03
Bischofite        0.00     4.59      4.59    1.000e+02   8.441e+01  -1.559e+01
CO2(g)           -3.50    -4.97     -1.47    1.000e+01   1.000e+01   4.696e-04
Carnallite        0.00     4.42      4.42    1.000e+01   9.956e+00  -4.362e-02
Halite           -0.00     1.58      1.58    1.000e+01   9.798e+00  -2.019e-01
Kieserite         0.00    -0.27     -0.27    1.000e+01   9.929e+00  -7.096e-02
Magnesite         0.00    -7.83     -7.83    1.000e+01   9.999e+00  -5.705e-04

-----------------------------Solution composition------------------------------

	Elements           Molality       Moles

	C                 3.750e-05   1.009e-04
	Ca                1.839e-03   4.950e-03
	Cl                1.171e+01   3.151e+01
	K                 1.621e-02   4.362e-02
	Mg                5.836e+00   1.571e+01
	Na                7.501e-02   2.019e-01
	S                 2.820e-02   7.591e-02

----------------------------Description of solution----------------------------

                                       pH  =   5.952      Charge balance
                                       pe  =   4.000      Adjusted to redox equilibrium
      Specific Conductance (µS/cm,  25°C)  = 82007
                          Density (g/cm³)  =   1.32601
                               Volume (L)  =   3.17051
                        Viscosity (mPa s)  =  12.39332
                        Activity of water  =   0.318
                 Ionic strength (mol/kgw)  =   1.763e+01
                       Mass of water (kg)  =   2.691e+00
                 Total alkalinity (eq/kg)  =   4.240e-04
                       Total CO2 (mol/kg)  =   3.750e-05
                         Temperature (°C)  =  25.00
                  Electrical balance (eq)  =  -1.329e-09
 Percent error, 100*(Cat-|An|)/(Cat+|An|)  =  -0.00
                               Iterations  = 150 (351 overall)
                         Gamma iterations  =  11
                      Osmotic coefficient  =   3.60311
                         Density of water  =   0.99704
                                  Total H  = 2.987656e+02
                                  Total O  = 1.496872e+02

----------------------------Distribution of species----------------------------

                                                    Unscaled  Unscaled
                                Unscaled       Log       Log       Log    mole V
   Species          Molality    Activity  Molality  Activity     Gamma   cm³/mol

   H+              5.482e-08   1.116e-06    -7.261    -5.952     1.309      0.00
   OH-             3.978e-08   2.881e-09    -7.400    -8.540    -1.140     19.04
   H2O             5.551e+01   3.177e-01     1.744    -0.498     0.000     18.07
C(4)          3.750e-05
   HCO3-           2.357e-05   1.405e-06    -4.628    -5.852    -1.225     31.88
   MgCO3           1.242e-05   1.242e-05    -4.906    -4.906     0.000    -17.09
   CO2             1.411e-06   1.083e-05    -5.850    -4.965     0.885     34.79
   CO3-2           9.867e-08   5.763e-11    -7.006   -10.239    -3.234     19.64
Ca            1.839e-03
   Ca+2            1.839e-03   8.383e-03    -2.735    -2.077     0.659     -9.96
Cl            1.171e+01
   Cl-             1.171e+01   3.871e+02     1.069     2.588     1.519     21.24
K             1.621e-02
   K+              1.621e-02   1.751e-03    -1.790    -2.757    -0.967     17.12
Mg            5.836e+00
   Mg+2            5.835e+00   2.543e+02     0.766     2.405     1.639    -12.86
   MgOH+           3.754e-04   1.124e-04    -3.426    -3.949    -0.524     (0)  
   MgCO3           1.242e-05   1.242e-05    -4.906    -4.906     0.000    -17.09
Na            7.501e-02
   Na+             7.501e-02   9.859e-02    -1.125    -1.006     0.119      3.18
S(6)          2.820e-02
   SO4-2           2.820e-02   6.688e-03    -1.550    -2.175    -0.625     34.62
   HSO4-           8.079e-09   7.257e-07    -8.093    -6.139     1.953     42.69

------------------------------Saturation indices-------------------------------

  Phase               SI** log IAP   log K(298 K,   1 atm)

  Anhydrite         0.00     -4.25   -4.25  CaSO4
  Aragonite        -4.10    -12.32   -8.22  CaCO3
  Arcanite         -5.81     -7.69   -1.88  K2SO4
  Artinite         -5.33     14.33   19.66  Mg2CO3(OH)2:3H2O
  Bischofite        0.00      4.59    4.59  MgCl2:6H2O
  Bloedite         -3.60     -5.95   -2.35  Na2Mg(SO4)2:4H2O
  Brucite          -3.80    -14.68  -10.88  Mg(OH)2
  Burkeite        -19.85    -20.63   -0.77  Na6CO3(SO4)2
  Calcite          -3.88    -12.32   -8.44  CaCO3
  Carnallite        0.00      4.42    4.42  KMgCl3:6H2O
  CO2(g)           -3.50     -4.97   -1.47  CO2	 Pressure   0.0 atm, phi 1.000
  Dolomite         -3.06    -20.15  -17.09  CaMg(CO3)2
  Epsomite         -1.41     -3.26   -1.85  MgSO4:7H2O
  Gaylussite      -17.64    -27.06   -9.42  CaNa2(CO3)2:5H2O
  Glaserite        -9.82    -13.63   -3.80  NaK3(SO4)2
  Glauberite       -3.09     -8.44   -5.35  Na2Ca(SO4)2
  Goergeyite       -0.07    -29.44  -29.37  K2Ca5(SO4)6H2O
  Gypsum           -0.65     -5.25   -4.60  CaSO4:2H2O
  H2O(g)           -2.00     -0.50    1.50  H2O
  Halite           -0.00      1.58    1.58  NaCl
  Hexahydrite      -1.19     -2.76   -1.57  MgSO4:6H2O
  Huntite          -4.70      5.54   10.24  CaMg3(CO3)4
  Kainite          -1.24     -1.43   -0.19  KMgClSO4:3H2O
  Kalicinite       -9.01    -18.95   -9.94  KHCO3
  Kieserite         0.00     -0.27   -0.27  MgSO4:H2O
  Labile_S         -7.95    -13.62   -5.67  Na4Ca(SO4)3:2H2O
  Leonhardite      -0.87     -1.76   -0.89  MgSO4:4H2O
  Leonite          -5.47     -9.45   -3.98  K2Mg(SO4)2:4H2O
  Magnesite         0.00     -7.83   -7.83  MgCO3
  MgCl2_2H2O       -7.97      6.58   14.56  MgCl2:2H2O
  MgCl2_4H2O       -1.39      5.59    6.98  MgCl2:4H2O
  Mirabilite       -7.93     -9.17   -1.24  Na2SO4:10H2O
  Misenite        -62.19    -72.99  -10.81  K8H6(SO4)7
  Nahcolite        -6.46    -17.20  -10.74  NaHCO3
  Natron          -16.41    -17.23   -0.82  Na2CO3:10H2O
  Nesquehonite     -4.16     -9.33   -5.17  MgCO3:3H2O
  Pentahydrite     -0.97     -2.26   -1.28  MgSO4:5H2O
  Pirssonite      -16.33    -25.56   -9.23  Na2Ca(CO3)2:2H2O
  Polyhalite       -3.21    -16.96  -13.74  K2MgCa2(SO4)4:2H2O
  Portlandite     -13.97    -19.16   -5.19  Ca(OH)2
  Schoenite        -6.12    -10.45   -4.33  K2Mg(SO4)2:6H2O
  Sylvite          -1.07     -0.17    0.90  KCl
  Syngenite        -6.01    -12.44   -6.43  K2Ca(SO4)2:H2O
  Thenardite       -3.89     -4.19   -0.30  Na2SO4
  Trona           -19.06    -30.45  -11.38  Na3H(CO3)2:2H2O

**For a gas, SI = log10(fugacity). Fugacity = pressure * phi / 1 atm.
  For ideal gases, phi = 1.

------------------
End of simulation.
------------------

------------------------------------
Reading input data for simulation 6.
------------------------------------

	SOLUTION 1	Pure water
	EQUILIBRIUM_PHASES
		Anhydrite	0	NaCl	10.
		Gypsum		0
	END
-------------------------------------------
Beginning of initial solution calculations.
-------------------------------------------

Initial solution 1.	Pure water

-----------------------------Solution composition------------------------------

	Elements           Molality       Moles

	Pure water     

----------------------------Description of solution----------------------------

                                       pH  =   7.000    
                                       pe  =   4.000    
      Specific Conductance (µS/cm,  25°C)  = 0
                          Density (g/cm³)  =   0.99704
                               Volume (L)  =   1.00297
                        Viscosity (mPa s)  =   0.89002
                        Activity of water  =   1.000
                 Ionic strength (mol/kgw)  =   1.006e-07
                       Mass of water (kg)  =   1.000e+00
                 Total alkalinity (eq/kg)  =   1.216e-09
                         Temperature (°C)  =  25.00
                  Electrical balance (eq)  =  -1.216e-09
 Percent error, 100*(Cat-|An|)/(Cat+|An|)  =  -0.60
                               Iterations  =   3
                         Gamma iterations  =   2
                      Osmotic coefficient  =   0.99988
                         Density of water  =   0.99704
                                  Total H  = 1.110124e+02
                                  Total O  = 5.550622e+01

----------------------------Distribution of species----------------------------

                                                    Unscaled  Unscaled
                                Unscaled       Log       Log       Log    mole V
   Species          Molality    Activity  Molality  Activity     Gamma   cm³/mol

   OH-             1.013e-07   1.012e-07    -6.995    -6.995    -0.000     -4.14
   H+              1.000e-07   1.000e-07    -7.000    -7.000    -0.000      0.00
   H2O             5.551e+01   1.000e+00     1.744    -0.000     0.000     18.07

------------------------------Saturation indices-------------------------------

  Phase               SI** log IAP   log K(298 K,   1 atm)

  H2O(g)           -1.50     -0.00    1.50  H2O

**For a gas, SI = log10(fugacity). Fugacity = pressure * phi / 1 atm.
  For ideal gases, phi = 1.

-----------------------------------------
Beginning of batch-reaction calculations.
-----------------------------------------

Reaction step 1.

WARNING: Anhydrite, Pure phase with add formula has not converged.
	 SI may be a local minimum.	Residual: 8.042215e-01

WARNING: Anhydrite, Pure phase with add formula has not converged.
	 SI may be a local minimum.	Residual: 8.042215e-01

WARNING: Anhydrite, Pure phase with add formula has not converged.
	 SI may be a local minimum.	Residual: 8.042215e-01

WARNING: Anhydrite, Pure phase with add formula has not converged.
	 SI may be a local minimum.	Residual: 8.042215e-01

WARNING: Anhydrite, Pure phase with add formula has not converged.
	 SI may be a local minimum.	Residual: 8.042215e-01

WARNING: Anhydrite, Pure phase with add formula has not converged.
	 SI may be a local minimum.	Residual: 8.042213e-01

WARNING: Anhydrite, Pure phase with add formula has not converged.
	 SI may be a local minimum.	Residual: 8.042197e-01

WARNING: Anhydrite, Pure phase with add formula has not converged.
	 SI may be a local minimum.	Residual: 8.042030e-01

WARNING: Anhydrite, Pure phase with add formula has not converged.
	 SI may be a local minimum.	Residual: 8.040368e-01

WARNING: Anhydrite, Pure phase with add formula has not converged.
	 SI may be a local minimum.	Residual: 8.023603e-01

WARNING: Anhydrite, Pure phase with add formula has not converged.
	 SI may be a local minimum.	Residual: 2.206078e-01

Using solution 1.	Pure water
Using pure phase assemblage 1.	

-------------------------------Phase assemblage--------------------------------

                                                      Moles in assemblage
Phase               SI  log IAP  log K(T, P)   Initial       Final       Delta

Anhydrite         0.00    -4.25     -4.25
	 NaCl               is reactant       1.000e+01   2.247e+00  -7.753e+00
Gypsum            0.00    -4.60     -4.60    1.000e+01   9.961e+00  -3.875e-02

-----------------------------Solution composition------------------------------

	Elements           Molality       Moles

	Ca                3.869e-02   3.875e-02
	Cl                7.742e+00   7.753e+00
	Na                7.742e+00   7.753e+00
	S                 3.869e-02   3.875e-02

----------------------------Description of solution----------------------------

                                       pH  =   6.641      Charge balance
                                       pe  =   4.000      Adjusted to redox equilibrium
      Specific Conductance (µS/cm,  25°C)  = 252024
                          Density (g/cm³)  =   1.24187
                               Volume (L)  =   1.17546
                        Viscosity (mPa s)  =   2.18834
                        Activity of water  =   0.669
                 Ionic strength (mol/kgw)  =   7.897e+00
                       Mass of water (kg)  =   1.001e+00
                 Total alkalinity (eq/kg)  =   1.215e-09
                         Temperature (°C)  =  25.00
                  Electrical balance (eq)  =  -1.215e-09
 Percent error, 100*(Cat-|An|)/(Cat+|An|)  =  -0.00
                               Iterations  =  56
                         Gamma iterations  =  15
                      Osmotic coefficient  =   1.43434
                         Density of water  =   0.99704
                                  Total H  = 1.111674e+02
                                  Total O  = 5.573869e+01

----------------------------Distribution of species----------------------------

                                                    Unscaled  Unscaled
                                Unscaled       Log       Log       Log    mole V
   Species          Molality    Activity  Molality  Activity     Gamma   cm³/mol

   OH-             5.476e-08   2.965e-08    -7.262    -7.528    -0.266      7.12
   H+              2.765e-08   2.284e-07    -7.558    -6.641     0.917      0.00
   H2O             5.551e+01   6.689e-01     1.744    -0.175     0.000     18.07
Ca            3.869e-02
   Ca+2            3.869e-02   9.137e-02    -1.412    -1.039     0.373    -13.55
Cl            7.742e+00
   Cl-             7.742e+00   9.957e+00     0.889     0.998     0.109     20.35
Na            7.742e+00
   Na+             7.742e+00   9.762e+00     0.889     0.990     0.101      1.64
S(6)          3.869e-02
   SO4-2           3.869e-02   6.137e-04    -1.412    -3.212    -1.800     28.04
   HSO4-           2.589e-08   1.362e-08    -7.587    -7.866    -0.279     42.22

------------------------------Saturation indices-------------------------------

  Phase               SI** log IAP   log K(298 K,   1 atm)

  Anhydrite         0.00     -4.25   -4.25  CaSO4
  Glauberite       -0.13     -5.48   -5.35  Na2Ca(SO4)2
  Gypsum            0.00     -4.60   -4.60  CaSO4:2H2O
  H2O(g)           -1.68     -0.17    1.50  H2O
  Halite            0.41      1.99    1.58  NaCl
  Labile_S         -1.39     -7.07   -5.67  Na4Ca(SO4)3:2H2O
  Mirabilite       -1.74     -2.98   -1.24  Na2SO4:10H2O
  Portlandite     -10.91    -16.10   -5.19  Ca(OH)2
  Thenardite       -0.93     -1.23   -0.30  Na2SO4

**For a gas, SI = log10(fugacity). Fugacity = pressure * phi / 1 atm.
  For ideal gases, phi = 1.

------------------
End of simulation.
------------------

------------------------------------
Reading input data for simulation 7.
------------------------------------

	SOLUTION 1	Pure water
	EQUILIBRIUM_PHASES
		Halite		0	100.
	REACTION_TEMPERATURE
		0	25	100	200	300
	END
-------------------------------------------
Beginning of initial solution calculations.
-------------------------------------------

Initial solution 1.	Pure water

-----------------------------Solution composition------------------------------

	Elements           Molality       Moles

	Pure water     

----------------------------Description of solution----------------------------

                                       pH  =   7.000    
                                       pe  =   4.000    
      Specific Conductance (µS/cm,  25°C)  = 0
                          Density (g/cm³)  =   0.99704
                               Volume (L)  =   1.00297
                        Viscosity (mPa s)  =   0.89002
                        Activity of water  =   1.000
                 Ionic strength (mol/kgw)  =   1.006e-07
                       Mass of water (kg)  =   1.000e+00
                 Total alkalinity (eq/kg)  =   1.216e-09
                         Temperature (°C)  =  25.00
                  Electrical balance (eq)  =  -1.216e-09
 Percent error, 100*(Cat-|An|)/(Cat+|An|)  =  -0.60
                               Iterations  =   3
                         Gamma iterations  =   2
                      Osmotic coefficient  =   0.99988
                         Density of water  =   0.99704
                                  Total H  = 1.110124e+02
                                  Total O  = 5.550622e+01

----------------------------Distribution of species----------------------------

                                                    Unscaled  Unscaled
                                Unscaled       Log       Log       Log    mole V
   Species          Molality    Activity  Molality  Activity     Gamma   cm³/mol

   OH-             1.013e-07   1.012e-07    -6.995    -6.995    -0.000     -4.14
   H+              1.000e-07   1.000e-07    -7.000    -7.000    -0.000      0.00
   H2O             5.551e+01   1.000e+00     1.744    -0.000     0.000     18.07

------------------------------Saturation indices-------------------------------

  Phase               SI** log IAP   log K(298 K,   1 atm)

  H2O(g)           -1.50     -0.00    1.50  H2O

**For a gas, SI = log10(fugacity). Fugacity = pressure * phi / 1 atm.
  For ideal gases, phi = 1.

-----------------------------------------
Beginning of batch-reaction calculations.
-----------------------------------------

Reaction step 1.

Using solution 1.	Pure water
Using pure phase assemblage 1.	
Using temperature 1.	

-------------------------------Phase assemblage--------------------------------

                                                      Moles in assemblage
Phase               SI  log IAP  log K(T, P)   Initial       Final       Delta

Halite            0.00     1.50      1.50    1.000e+02   9.387e+01  -6.132e+00

-----------------------------Solution composition------------------------------

	Elements           Molality       Moles

	Cl                6.132e+00   6.132e+00
	Na                6.132e+00   6.132e+00

----------------------------Description of solution----------------------------

                                       pH  =   7.063      Charge balance
                                       pe  =   4.000      Adjusted to redox equilibrium
      Specific Conductance (µS/cm,   0°C)  = 140065
                          Density (g/cm³)  =   1.21337
                               Volume (L)  =   1.11951
                        Viscosity (mPa s)  =   3.47880
                        Activity of water  =   0.756
                 Ionic strength (mol/kgw)  =   6.132e+00
                       Mass of water (kg)  =   1.000e+00
                 Total alkalinity (eq/kg)  =   1.216e-09
                         Temperature (°C)  =   0.00
                  Electrical balance (eq)  =  -1.216e-09
 Percent error, 100*(Cat-|An|)/(Cat+|An|)  =  -0.00
                               Iterations  =  18
                         Gamma iterations  =   5
                      Osmotic coefficient  =   1.26653
                         Density of water  =   0.99984
                                  Total H  = 1.110124e+02
                                  Total O  = 5.550622e+01

----------------------------Distribution of species----------------------------

                                                    Unscaled  Unscaled
                                Unscaled       Log       Log       Log    mole V
   Species          Molality    Activity  Molality  Activity     Gamma   cm³/mol

   OH-             1.703e-08   1.007e-08    -7.769    -7.997    -0.228      2.35
   H+              1.582e-08   8.647e-08    -7.801    -7.063     0.738      0.00
   H2O             5.551e+01   7.559e-01     1.744    -0.122     0.000     18.02
Cl            6.132e+00
   Cl-             6.132e+00   5.634e+00     0.788     0.751    -0.037     18.98
Na            6.132e+00
   Na+             6.132e+00   5.634e+00     0.788     0.751    -0.037      0.48

------------------------------Saturation indices-------------------------------

  Phase               SI** log IAP   log K(273 K,   1 atm)

  H2O(g)           -2.33     -0.12    2.21  H2O
  Halite            0.00      1.50    1.50  NaCl

**For a gas, SI = log10(fugacity). Fugacity = pressure * phi / 1 atm.
  For ideal gases, phi = 1.

Reaction step 2.

Using solution 1.	Pure water
Using pure phase assemblage 1.	
Using temperature 1.	

-------------------------------Phase assemblage--------------------------------

                                                      Moles in assemblage
Phase               SI  log IAP  log K(T, P)   Initial       Final       Delta

Halite            0.00     1.58      1.58    1.000e+02   9.387e+01  -6.129e+00

-----------------------------Solution composition------------------------------

	Elements           Molality       Moles

	Cl                6.129e+00   6.129e+00
	Na                6.129e+00   6.129e+00

----------------------------Description of solution----------------------------

                                       pH  =   6.597      Charge balance
                                       pe  =   4.000      Adjusted to redox equilibrium
      Specific Conductance (µS/cm,  25°C)  = 250788
                          Density (g/cm³)  =   1.19761
                               Volume (L)  =   1.13410
                        Viscosity (mPa s)  =   1.76422
                        Activity of water  =   0.753
                 Ionic strength (mol/kgw)  =   6.129e+00
                       Mass of water (kg)  =   1.000e+00
                 Total alkalinity (eq/kg)  =   1.216e-09
                         Temperature (°C)  =  25.00
                  Electrical balance (eq)  =  -1.216e-09
 Percent error, 100*(Cat-|An|)/(Cat+|An|)  =  -0.00
                               Iterations  =  18
                         Gamma iterations  =   5
                      Osmotic coefficient  =   1.28532
                         Density of water  =   0.99704
                                  Total H  = 1.110124e+02
                                  Total O  = 5.550622e+01

----------------------------Distribution of species----------------------------

                                                    Unscaled  Unscaled
                                Unscaled       Log       Log       Log    mole V
   Species          Molality    Activity  Molality  Activity     Gamma   cm³/mol

   OH-             5.532e-08   3.012e-08    -7.257    -7.521    -0.264      4.88
   H+              5.411e-08   2.530e-07    -7.267    -6.597     0.670      0.00
   H2O             5.551e+01   7.529e-01     1.744    -0.123     0.000     18.07
Cl            6.129e+00
   Cl-             6.129e+00   6.177e+00     0.787     0.791     0.003     20.11
Na            6.129e+00
   Na+             6.129e+00   6.177e+00     0.787     0.791     0.003      1.28

------------------------------Saturation indices-------------------------------

  Phase               SI** log IAP   log K(298 K,   1 atm)

  H2O(g)           -1.63     -0.12    1.50  H2O
  Halite            0.00      1.58    1.58  NaCl

**For a gas, SI = log10(fugacity). Fugacity = pressure * phi / 1 atm.
  For ideal gases, phi = 1.

Reaction step 3.

Using solution 1.	Pure water
Using pure phase assemblage 1.	
Using temperature 1.	

-------------------------------Phase assemblage--------------------------------

                                                      Moles in assemblage
Phase               SI  log IAP  log K(T, P)   Initial       Final       Delta

Halite            0.00     1.58      1.58    1.000e+02   9.328e+01  -6.724e+00

-----------------------------Solution composition------------------------------

	Elements           Molality       Moles

	Cl                6.724e+00   6.724e+00
	Na                6.724e+00   6.724e+00

----------------------------Description of solution----------------------------

                                       pH  =   5.710      Charge balance
                                       pe  =   4.000      Adjusted to redox equilibrium
      Specific Conductance (µS/cm, 100°C)  = 643850
                          Density (g/cm³)  =   1.16966
                               Volume (L)  =   1.19092
                        Viscosity (mPa s)  =   0.60356
                        Activity of water  =   0.740
                 Ionic strength (mol/kgw)  =   6.724e+00
                       Mass of water (kg)  =   1.000e+00
                 Total alkalinity (eq/kg)  =   1.216e-09
                         Temperature (°C)  = 100.00
                  Electrical balance (eq)  =  -1.216e-09
 Percent error, 100*(Cat-|An|)/(Cat+|An|)  =  -0.00
                               Iterations  =  19
                         Gamma iterations  =   5
                      Osmotic coefficient  =   1.24414
                         Density of water  =   0.95835
                                  Total H  = 1.110124e+02
                                  Total O  = 5.550622e+01

----------------------------Distribution of species----------------------------

                                                    Unscaled  Unscaled
                                Unscaled       Log       Log       Log    mole V
   Species          Molality    Activity  Molality  Activity     Gamma   cm³/mol

   OH-             5.207e-07   2.194e-07    -6.283    -6.659    -0.375      6.59
   H+              5.195e-07   1.948e-06    -6.284    -5.710     0.574      0.00
   H2O             5.551e+01   7.398e-01     1.744    -0.131     0.000     18.80
Cl            6.724e+00
   Cl-             6.724e+00   6.189e+00     0.828     0.792    -0.036     20.04
Na            6.724e+00
   Na+             6.724e+00   6.189e+00     0.828     0.792    -0.036      1.89

------------------------------Saturation indices-------------------------------

  Phase               SI** log IAP   log K(373 K,   1 atm)

  H2O(g)           -0.14     -0.13    0.00  H2O
  Halite            0.00      1.58    1.58  NaCl

**For a gas, SI = log10(fugacity). Fugacity = pressure * phi / 1 atm.
  For ideal gases, phi = 1.

Reaction step 4.

Using solution 1.	Pure water
Using pure phase assemblage 1.	
Using temperature 1.	

-------------------------------Phase assemblage--------------------------------

                                                      Moles in assemblage
Phase               SI  log IAP  log K(T, P)   Initial       Final       Delta

Halite            0.00     1.19      1.19    1.000e+02   9.213e+01  -7.873e+00

-----------------------------Solution composition------------------------------

	Elements           Molality       Moles

	Cl                7.873e+00   7.873e+00
	Na                7.873e+00   7.873e+00

----------------------------Description of solution----------------------------

                                       pH  =   5.141      Charge balance
                                       pe  =   4.000      Adjusted to redox equilibrium
      Specific Conductance (µS/cm, 200°C)  = 1116568
                          Density (g/cm³)  =   1.11227
                               Volume (L)  =   1.31276
                        Viscosity (mPa s)  =   0.31306
                        Activity of water  =   0.742
                 Ionic strength (mol/kgw)  =   7.873e+00
                       Mass of water (kg)  =   1.000e+00
                 Total alkalinity (eq/kg)  =   1.216e-09
                         Temperature (°C)  = 200.00
                           Pressure (atm)  = 15.38
                  Electrical balance (eq)  =  -1.216e-09
 Percent error, 100*(Cat-|An|)/(Cat+|An|)  =  -0.00
                               Iterations  =  23
                         Gamma iterations  =   5
                      Osmotic coefficient  =   1.05082
                         Density of water  =   0.86467
                                  Total H  = 1.110124e+02
                                  Total O  = 5.550622e+01

----------------------------Distribution of species----------------------------

                                                    Unscaled  Unscaled
                                Unscaled       Log       Log       Log    mole V
   Species          Molality    Activity  Molality  Activity     Gamma   cm³/mol

   OH-             2.594e-06   4.953e-07    -5.586    -6.305    -0.719      3.55
   H+              2.593e-06   7.235e-06    -5.586    -5.141     0.446      0.00
   H2O             5.551e+01   7.422e-01     1.744    -0.129     0.000     20.84
Cl            7.873e+00
   Cl-             7.873e+00   3.953e+00     0.896     0.597    -0.299     16.64
Na            7.873e+00
   Na+             7.873e+00   3.953e+00     0.896     0.597    -0.299      3.21

------------------------------Saturation indices-------------------------------

  Phase               SI** log IAP   log K(473 K,  15 atm)

  H2O(g)            1.03     -0.13   -1.16  H2O
  Halite            0.00      1.19    1.19  NaCl

**For a gas, SI = log10(fugacity). Fugacity = pressure * phi / 1 atm.
  For ideal gases, phi = 1.

Reaction step 5.

Using solution 1.	Pure water
Using pure phase assemblage 1.	
Using temperature 1.	

-------------------------------Phase assemblage--------------------------------

                                                      Moles in assemblage
Phase               SI  log IAP  log K(T, P)   Initial       Final       Delta

Halite            0.00     0.35      0.35    1.000e+02   8.887e+01  -1.113e+01

-----------------------------Solution composition------------------------------

	Elements           Molality       Moles

	Cl                1.113e+01   1.113e+01
	Na                1.113e+01   1.113e+01

----------------------------Description of solution----------------------------

                                       pH  =   4.429      Charge balance
                                       pe  =   4.000      Adjusted to redox equilibrium
      Specific Conductance (µS/cm, 300°C)  = 2286032
                          Density (g/cm³)  =   0.90407
                               Volume (L)  =   1.82530
                        Viscosity (mPa s)  =   0.08589 (solute contributions limited to 200 °C)
                        Activity of water  =   0.745
                 Ionic strength (mol/kgw)  =   1.113e+01
                       Mass of water (kg)  =   1.000e+00
                 Total alkalinity (eq/kg)  =   1.216e-09
                         Temperature (°C)  = 300.00
                           Pressure (atm)  = 83.82
                  Electrical balance (eq)  =  -1.216e-09
 Percent error, 100*(Cat-|An|)/(Cat+|An|)  =  -0.00
                               Iterations  =  32
                         Gamma iterations  =   6
                      Osmotic coefficient  =   0.73478
                         Density of water  =   0.71233
                                  Total H  = 1.110124e+02
                                  Total O  = 5.550622e+01

----------------------------Distribution of species----------------------------

                                                    Unscaled  Unscaled
                                Unscaled       Log       Log       Log    mole V
   Species          Molality    Activity  Molality  Activity     Gamma   cm³/mol

   OH-             1.153e-05   7.711e-08    -4.938    -7.113    -2.175     -0.18
   H+              1.153e-05   3.720e-05    -4.938    -4.429     0.509      0.00
   H2O             5.551e+01   7.449e-01     1.744    -0.128     0.000     25.29
Cl            1.113e+01
   Cl-             1.113e+01   1.492e+00     1.046     0.174    -0.872     20.57
Na            1.113e+01
   Na+             1.113e+01   1.492e+00     1.046     0.174    -0.872     17.31

------------------------------Saturation indices-------------------------------

  Phase               SI** log IAP   log K(573 K,  84 atm)

  H2O(g)            1.70     -0.13   -1.82  H2O
  Halite            0.00      0.35    0.35  NaCl

**For a gas, SI = log10(fugacity). Fugacity = pressure * phi / 1 atm.
  For ideal gases, phi = 1.

------------------
End of simulation.
------------------

------------------------------------
Reading input data for simulation 8.
------------------------------------

	SOLUTION 1	Pure water
	EQUILIBRIUM_PHASES
		Calcite  0
		CO2(g)	-2.0	
	SAVE solution 2
	END
-------------------------------------------
Beginning of initial solution calculations.
-------------------------------------------

Initial solution 1.	Pure water

-----------------------------Solution composition------------------------------

	Elements           Molality       Moles

	Pure water     

----------------------------Description of solution----------------------------

                                       pH  =   7.000    
                                       pe  =   4.000    
      Specific Conductance (µS/cm,  25°C)  = 0
                          Density (g/cm³)  =   0.99704
                               Volume (L)  =   1.00297
                        Viscosity (mPa s)  =   0.89002
                        Activity of water  =   1.000
                 Ionic strength (mol/kgw)  =   1.006e-07
                       Mass of water (kg)  =   1.000e+00
                 Total alkalinity (eq/kg)  =   1.216e-09
[...]
                  Electrical balance (eq)  =  -1.206e-04
 Percent error, 100*(Cat-|An|)/(Cat+|An|)  =  -0.01
                               Iterations  =   7
                         Gamma iterations  =   2
                      Osmotic coefficient  =   0.90381
                         Density of water  =   0.99704
                                  Total H  = 1.110145e+02
                                  Total O  = 5.562532e+01

----------------------------Distribution of species----------------------------

                                                    Unscaled  Unscaled
                                Unscaled       Log       Log       Log    mole V
   Species          Molality    Activity  Molality  Activity     Gamma   cm³/mol

   OH-             9.142e-07   5.265e-07    -6.039    -6.279    -0.240     -2.55
   H+              2.562e-08   1.886e-08    -7.591    -7.724    -0.133      0.00
   H2O             5.551e+01   9.813e-01     1.744    -0.008     0.000     18.07
Br            8.729e-04
   Br-             8.729e-04   6.244e-04    -3.059    -3.205    -0.145     25.25
C(4)          4.085e-04
   HCO3-           3.866e-04   2.567e-04    -3.413    -3.591    -0.178     26.69
   CO2             9.745e-06   1.083e-05    -5.011    -4.965     0.046     34.79
   CO3-2           6.156e-06   6.231e-07    -5.211    -6.205    -0.995     -0.60
   MgCO3           5.908e-06   5.908e-06    -5.229    -5.229     0.000    -17.09
Ca            1.014e-02
   Ca+2            1.014e-02   1.886e-03    -1.994    -2.725    -0.731    -16.66
Cl            5.657e-01
   Cl-             5.657e-01   3.906e-01    -0.247    -0.408    -0.161     18.81
K             1.058e-02
   K+              1.058e-02   6.236e-03    -1.976    -2.205    -0.230      9.69
Mg            5.457e-02
   Mg+2            5.456e-02   1.119e-02    -1.263    -1.951    -0.688    -20.38
   MgCO3           5.908e-06   5.908e-06    -5.229    -5.229     0.000    -17.09
   MgOH+           1.026e-06   9.037e-07    -5.989    -6.044    -0.055     (0)  
Na            4.854e-01
   Na+             4.854e-01   3.104e-01    -0.314    -0.508    -0.194     -0.47
S(6)          2.926e-02
   SO4-2           2.926e-02   3.033e-03    -1.534    -2.518    -0.984     18.60
   HSO4-           7.883e-09   5.563e-09    -8.103    -8.255    -0.151     40.99

------------------------------Saturation indices-------------------------------

  Phase               SI** log IAP   log K(298 K,   1 atm)

  Anhydrite        -0.99     -5.24   -4.25  CaSO4
  Aragonite        -0.71     -8.93   -8.22  CaCO3
  Arcanite         -5.05     -6.93   -1.88  K2SO4
  Artinite         -4.02     15.64   19.66  Mg2CO3(OH)2:3H2O
  Bischofite       -7.41     -2.82    4.59  MgCl2:6H2O
  Bloedite         -5.69     -8.04   -2.35  Na2Mg(SO4)2:4H2O
  Brucite          -3.63    -14.51  -10.88  Mg(OH)2
  Burkeite        -13.52    -14.29   -0.77  Na6CO3(SO4)2
  Calcite          -0.49     -8.93   -8.44  CaCO3
  Carnallite       -9.85     -5.43    4.42  KMgCl3:6H2O
  CO2(g)           -3.50     -4.97   -1.47  CO2	 Pressure   0.0 atm, phi 1.000
  Dolomite          0.00    -17.09  -17.09  CaMg(CO3)2
  Epsomite         -2.68     -4.53   -1.85  MgSO4:7H2O
  Gaylussite       -6.77    -16.19   -9.42  CaNa2(CO3)2:5H2O
  Glaserite        -8.36    -12.16   -3.80  NaK3(SO4)2
  Glauberite       -3.43     -8.78   -5.35  Na2Ca(SO4)2
  Goergeyite       -3.78    -33.15  -29.37  K2Ca5(SO4)6H2O
  Gypsum           -0.66     -5.26   -4.60  CaSO4:2H2O
  H2O(g)           -1.51     -0.01    1.50  H2O
  Halite           -2.50     -0.92    1.58  NaCl
  Hexahydrite      -2.95     -4.52   -1.57  MgSO4:6H2O
  Huntite          -2.28      7.96   10.24  CaMg3(CO3)4
  Kainite          -6.91     -7.11   -0.19  KMgClSO4:3H2O
  Kalicinite       -6.19    -16.13   -9.94  KHCO3
  Kieserite        -4.21     -4.48   -0.27  MgSO4:H2O
  Labile_S         -6.66    -12.33   -5.67  Na4Ca(SO4)3:2H2O
  Leonhardite      -3.62     -4.50   -0.89  MgSO4:4H2O
  Leonite          -7.45    -11.43   -3.98  K2Mg(SO4)2:4H2O
  Magnesite        -0.32     -8.16   -7.83  MgCO3
  MgCl2_2H2O      -17.34     -2.78   14.56  MgCl2:2H2O
  MgCl2_4H2O       -9.78     -2.80    6.98  MgCl2:4H2O
  Mirabilite       -2.38     -3.62   -1.24  Na2SO4:10H2O
  Misenite        -70.81    -81.61  -10.81  K8H6(SO4)7
  Nahcolite        -3.70    -14.44  -10.74  NaHCO3
  Natron           -6.48     -7.30   -0.82  Na2CO3:10H2O
  Nesquehonite     -3.01     -8.18   -5.17  MgCO3:3H2O
  Pentahydrite     -3.23     -4.51   -1.28  MgSO4:5H2O
  Pirssonite       -6.93    -16.17   -9.23  Na2Ca(CO3)2:2H2O
  Polyhalite       -8.16    -21.90  -13.74  K2MgCa2(SO4)4:2H2O
  Portlandite     -10.09    -15.28   -5.19  Ca(OH)2
  Schoenite        -7.12    -11.45   -4.33  K2Mg(SO4)2:6H2O
  Sylvite          -3.51     -2.61    0.90  KCl
  Syngenite        -5.75    -12.18   -6.43  K2Ca(SO4)2:H2O
  Thenardite       -3.23     -3.53   -0.30  Na2SO4
  Trona           -10.29    -21.68  -11.38  Na3H(CO3)2:2H2O

**For a gas, SI = log10(fugacity). Fugacity = pressure * phi / 1 atm.
  For ideal gases, phi = 1.

------------------
End of simulation.
------------------

-------------------------------------
Reading input data for simulation 16.
-------------------------------------

	USE solution 1
	EQUILIBRIUM_PHASES
		Gypsum		0	H2O	100.
		CO2(g)		-3.5
		Dolomite	0
	SAVE solution 1
	END
-----------------------------------------
Beginning of batch-reaction calculations.
-----------------------------------------

Reaction step 1.

Using solution 1.	Solution after simulation 15.
Using pure phase assemblage 1.	

-------------------------------Phase assemblage--------------------------------

                                                      Moles in assemblage
Phase               SI  log IAP  log K(T, P)   Initial       Final       Delta

CO2(g)           -3.50    -4.97     -1.47    1.000e+01   1.000e+01   1.680e-04
Dolomite          0.00   -17.09    -17.09    1.000e+01   1.000e+01   8.513e-05
Gypsum            0.00    -4.60     -4.60
	 H2O                is reactant       1.000e+02   1.395e+02   3.950e+01

-----------------------------Solution composition------------------------------

	Elements           Molality       Moles

	Br                3.026e-03   8.729e-04
	C                 2.434e-04   7.020e-05
	Ca                3.487e-02   1.006e-02
	Cl                1.961e+00   5.658e-01
	K                 3.668e-02   1.058e-02
	Mg                1.889e-01   5.448e-02
	Na                1.683e+00   4.854e-01
	S                 1.014e-01   2.926e-02

----------------------------Description of solution----------------------------

                                       pH  =   7.444      Charge balance
                                       pe  =   8.451      Adjusted to redox equilibrium
      Specific Conductance (µS/cm,  25°C)  = 140113
                          Density (g/cm³)  =   1.08224
                               Volume (L)  =   0.30002
                        Viscosity (mPa s)  =   1.15472
                        Activity of water  =   0.931
                 Ionic strength (mol/kgw)  =   2.492e+00
                       Mass of water (kg)  =   2.884e-01
                 Total alkalinity (eq/kg)  =   2.502e-04
                       Total CO2 (mol/kg)  =   2.434e-04
                         Temperature (°C)  =  25.00
                  Electrical balance (eq)  =  -1.206e-04
 Percent error, 100*(Cat-|An|)/(Cat+|An|)  =  -0.01
                               Iterations  =  26
                         Gamma iterations  =   6
                      Osmotic coefficient  =   0.98840
                         Density of water  =   0.99704
                                  Total H  = 3.202136e+01
                                  Total O  = 1.612789e+01

----------------------------Distribution of species----------------------------

                                                    Unscaled  Unscaled
                                Unscaled       Log       Log       Log    mole V
   Species          Molality    Activity  Molality  Activity     Gamma   cm³/mol

   OH-             5.725e-07   2.618e-07    -6.242    -6.582    -0.340      0.07
   H+              3.507e-08   3.600e-08    -7.455    -7.444     0.011      0.00
   H2O             5.551e+01   9.311e-01     1.744    -0.031     0.000     18.07
Br            3.026e-03
   Br-             3.026e-03   2.499e-03    -2.519    -2.602    -0.083     25.76
C(4)          2.434e-04
   HCO3-           2.246e-04   1.277e-04    -3.649    -3.894    -0.245     28.07
   CO2             7.522e-06   1.083e-05    -5.124    -4.965     0.158     34.79
   MgCO3           6.318e-06   6.318e-06    -5.199    -5.199     0.000    -17.09
   CO3-2           4.920e-06   1.624e-07    -5.308    -6.789    -1.481      3.38
Ca            3.487e-02
   Ca+2            3.487e-02   6.767e-03    -1.458    -2.170    -0.712    -15.71
Cl            1.961e+00
   Cl-             1.961e+00   1.443e+00     0.293     0.159    -0.133     19.43
K             3.668e-02
   K+              3.668e-02   1.775e-02    -1.436    -1.751    -0.315     10.56
Mg            1.889e-01
   Mg+2            1.889e-01   4.592e-02    -0.724    -1.338    -0.614    -19.37
   MgCO3           6.318e-06   6.318e-06    -5.199    -5.199     0.000    -17.09
   MgOH+           2.575e-06   1.844e-06    -5.589    -5.734    -0.145     (0)  
Na            1.683e+00
   Na+             1.683e+00   1.041e+00     0.226     0.018    -0.209      0.32
S(6)          1.014e-01
   SO4-2           1.014e-01   4.277e-03    -0.994    -2.369    -1.375     22.14
   HSO4-           2.108e-08   1.497e-08    -7.676    -7.825    -0.149     41.52

------------------------------Saturation indices-------------------------------

  Phase               SI** log IAP   log K(298 K,   1 atm)

  Anhydrite        -0.29     -4.54   -4.25  CaSO4
  Aragonite        -0.74     -8.96   -8.22  CaCO3
  Arcanite         -3.99     -5.87   -1.88  K2SO4
  Artinite         -4.05     15.61   19.66  Mg2CO3(OH)2:3H2O
  Bischofite       -5.80     -1.21    4.59  MgCl2:6H2O
  Bloedite         -3.82     -6.16   -2.35  Na2Mg(SO4)2:4H2O
  Brucite          -3.62    -14.50  -10.88  Mg(OH)2
  Burkeite        -10.65    -11.42   -0.77  Na6CO3(SO4)2
  Calcite          -0.52     -8.96   -8.44  CaCO3
  Carnallite       -7.22     -2.80    4.42  KMgCl3:6H2O
  CO2(g)           -3.50     -4.97   -1.47  CO2	 Pressure   0.0 atm, phi 1.000
  Dolomite          0.00    -17.09  -17.09  CaMg(CO3)2
  Epsomite         -2.08     -3.92   -1.85  MgSO4:7H2O
  Gaylussite       -6.45    -15.87   -9.42  CaNa2(CO3)2:5H2O
  Glaserite        -6.17     -9.97   -3.80  NaK3(SO4)2
  Glauberite       -1.52     -6.87   -5.35  Na2Ca(SO4)2
  Goergeyite        0.77    -28.59  -29.37  K2Ca5(SO4)6H2O
  Gypsum            0.00     -4.60   -4.60  CaSO4:2H2O
  H2O(g)           -1.53     -0.03    1.50  H2O
  Halite           -1.40      0.18    1.58  NaCl
  Hexahydrite      -2.33     -3.89   -1.57  MgSO4:6H2O
  Huntite          -2.23      8.02   10.24  CaMg3(CO3)4
  Kainite          -5.20     -5.39   -0.19  KMgClSO4:3H2O
  Kalicinite       -6.04    -15.98   -9.94  KHCO3
  Kieserite        -3.47     -3.74   -0.27  MgSO4:H2O
  Labile_S         -3.60     -9.27   -5.67  Na4Ca(SO4)3:2H2O
  Leonhardite      -2.94     -3.83   -0.89  MgSO4:4H2O
  Leonite          -5.72     -9.70   -3.98  K2Mg(SO4)2:4H2O
  Magnesite        -0.29     -8.13   -7.83  MgCO3
  MgCl2_2H2O      -15.64     -1.08   14.56  MgCl2:2H2O
  MgCl2_4H2O       -8.12     -1.14    6.98  MgCl2:4H2O
  Mirabilite       -1.40     -2.64   -1.24  Na2SO4:10H2O
  Misenite        -64.44    -75.25  -10.81  K8H6(SO4)7
  Nahcolite        -3.47    -14.22  -10.74  NaHCO3
  Natron           -6.24     -7.06   -0.82  Na2CO3:10H2O
  Nesquehonite     -3.05     -8.22   -5.17  MgCO3:3H2O
  Pentahydrite     -2.58     -3.86   -1.28  MgSO4:5H2O
  Pirssonite       -6.54    -15.78   -9.23  Na2Ca(CO3)2:2H2O
  Polyhalite       -4.97    -18.72  -13.74  K2MgCa2(SO4)4:2H2O
  Portlandite     -10.14    -15.33   -5.19  Ca(OH)2
  Schoenite        -5.44     -9.76   -4.33  K2Mg(SO4)2:6H2O
  Sylvite          -2.49     -1.59    0.90  KCl
  Syngenite        -4.01    -10.44   -6.43  K2Ca(SO4)2:H2O
  Thenardite       -2.03     -2.33   -0.30  Na2SO4
  Trona            -9.65    -21.03  -11.38  Na3H(CO3)2:2H2O

**For a gas, SI = log10(fugacity). Fugacity = pressure * phi / 1 atm.
  For ideal gases, phi = 1.

------------------
End of simulation.
------------------

-------------------------------------
Reading input data for simulation 17.
-------------------------------------

	USE solution 1
	EQUILIBRIUM_PHASES
		Halite		0	H2O	100.
		Gypsum		0
		CO2(g)		-3.5
		Dolomite	0
	SAVE solution 1
	END
-----------------------------------------
Beginning of batch-reaction calculations.
-----------------------------------------

Reaction step 1.

Using solution 1.	Solution after simulation 16.
Using pure phase assemblage 1.	

-------------------------------Phase assemblage--------------------------------

                                                      Moles in assemblage
Phase               SI  log IAP  log K(T, P)   Initial       Final       Delta

CO2(g)           -3.50    -4.97     -1.47    1.000e+01   1.000e+01   3.099e-05
Dolomite          0.00   -17.09    -17.09    1.000e+01   1.000e+01   1.313e-05
Gypsum            0.00    -4.60     -4.60    1.000e+01   1.001e+01   8.938e-03
Halite            0.00     1.58      1.58
	 H2O                is reactant       1.000e+02   1.108e+02   1.081e+01

-----------------------------Solution composition------------------------------

	Elements           Molality       Moles

	Br                9.341e-03   8.729e-04
	C                 1.386e-04   1.296e-05
	Ca                1.185e-02   1.107e-03
	Cl                6.054e+00   5.658e-01
	K                 1.132e-01   1.058e-02
	Mg                5.828e-01   5.447e-02
	Na                5.194e+00   4.854e-01
	S                 2.174e-01   2.032e-02

----------------------------Description of solution----------------------------

                                       pH  =   7.119      Charge balance
                                       pe  =   8.451      Adjusted to redox equilibrium
      Specific Conductance (µS/cm,  25°C)  = 227386
                          Density (g/cm³)  =   1.21537
                               Volume (L)  =   0.10571
                        Viscosity (mPa s)  =   2.02304
                        Activity of water  =   0.739
                 Ionic strength (mol/kgw)  =   7.310e+00
                       Mass of water (kg)  =   9.345e-02
                 Total alkalinity (eq/kg)  =   2.104e-04
                       Total CO2 (mol/kg)  =   1.386e-04
                         Temperature (°C)  =  25.00
                  Electrical balance (eq)  =  -1.206e-04
 Percent error, 100*(Cat-|An|)/(Cat+|An|)  =  -0.01
                               Iterations  =  27
                         Gamma iterations  =   6
                      Osmotic coefficient  =   1.37600
                         Density of water  =   0.99704
                                  Total H  = 1.037461e+01
                                  Total O  = 5.268625e+00

----------------------------Distribution of species----------------------------

                                                    Unscaled  Unscaled
                                Unscaled       Log       Log       Log    mole V
   Species          Molality    Activity  Molality  Activity     Gamma   cm³/mol

   OH-             2.355e-07   9.846e-08    -6.628    -7.007    -0.379      6.38
   H+              1.771e-08   7.600e-08    -7.752    -7.119     0.633      0.00
   H2O             5.551e+01   7.393e-01     1.744    -0.131     0.000     18.07
Br            9.341e-03
   Br-             9.341e-03   1.719e-02    -2.030    -1.765     0.265     26.32
C(4)          1.386e-04
   HCO3-           1.075e-04   4.801e-05    -3.968    -4.319    -0.350     29.83
   MgCO3           2.525e-05   2.525e-05    -4.598    -4.598     0.000    -17.09
   CO2             3.726e-06   1.083e-05    -5.429    -4.965     0.464     34.79
   CO3-2           2.110e-06   2.892e-08    -5.676    -7.539    -1.863      9.95
Ca            1.185e-02
   Ca+2            1.185e-02   9.508e-03    -1.926    -2.022    -0.096    -13.77
Cl            6.054e+00
   Cl-             6.054e+00   7.913e+00     0.782     0.898     0.116     20.28
K             1.132e-01
   K+              1.132e-01   4.855e-02    -0.946    -1.314    -0.368     12.70
Mg            5.828e-01
   Mg+2            5.828e-01   1.030e+00    -0.235     0.013     0.247    -17.21
   MgOH+           4.792e-05   1.556e-05    -4.319    -4.808    -0.489     (0)  
   MgCO3           2.525e-05   2.525e-05    -4.598    -4.598     0.000    -17.09
Na            5.194e+00
   Na+             5.194e+00   4.823e+00     0.716     0.683    -0.032      1.53
S(6)          2.174e-01
   SO4-2           2.174e-01   4.828e-03    -0.663    -2.316    -1.654     27.53
   HSO4-           4.103e-08   3.567e-08    -7.387    -7.448    -0.061     42.17

------------------------------Saturation indices-------------------------------

  Phase               SI** log IAP   log K(298 K,   1 atm)

  Anhydrite        -0.09     -4.34   -4.25  CaSO4
  Aragonite        -1.34     -9.56   -8.22  CaCO3
  Arcanite         -3.06     -4.94   -1.88  K2SO4
  Artinite         -3.25     16.41   19.66  Mg2CO3(OH)2:3H2O
  Bischofite       -3.57      1.02    4.59  MgCl2:6H2O
  Bloedite         -1.43     -3.78   -2.35  Na2Mg(SO4)2:4H2O
  Brucite          -3.12    -14.00  -10.88  Mg(OH)2
  Burkeite         -7.30     -8.07   -0.77  Na6CO3(SO4)2
  Calcite          -1.12     -9.56   -8.44  CaCO3
  Carnallite       -3.82      0.61    4.42  KMgCl3:6H2O
  CO2(g)           -3.50     -4.97   -1.47  CO2	 Pressure   0.0 atm, phi 1.000
  Dolomite          0.00    -17.09  -17.09  CaMg(CO3)2
  Epsomite         -1.37     -3.22   -1.85  MgSO4:7H2O
  Gaylussite       -6.97    -16.39   -9.42  CaNa2(CO3)2:5H2O
  Glaserite        -4.09     -7.89   -3.80  NaK3(SO4)2
  Glauberite        0.06     -5.29   -5.35  Na2Ca(SO4)2
  Goergeyite        2.60    -26.77  -29.37  K2Ca5(SO4)6H2O
  Gypsum            0.00     -4.60   -4.60  CaSO4:2H2O
  H2O(g)           -1.63     -0.13    1.50  H2O
  Halite            0.00      1.58    1.58  NaCl
  Hexahydrite      -1.52     -3.09   -1.57  MgSO4:6H2O
  Huntite          -1.02      9.22   10.24  CaMg3(CO3)4
  Kainite          -2.92     -3.11   -0.19  KMgClSO4:3H2O
  Kalicinite       -6.03    -15.97   -9.94  KHCO3
  Kieserite        -2.17     -2.43   -0.27  MgSO4:H2O
  Labile_S         -0.83     -6.50   -5.67  Na4Ca(SO4)3:2H2O
  Leonhardite      -1.94     -2.83   -0.89  MgSO4:4H2O
  Leonite          -3.79     -7.77   -3.98  K2Mg(SO4)2:4H2O
  Magnesite         0.31     -7.53   -7.83  MgCO3
  MgCl2_2H2O      -13.01      1.55   14.56  MgCl2:2H2O
  MgCl2_4H2O       -5.69      1.28    6.98  MgCl2:4H2O
  Mirabilite       -1.02     -2.26   -1.24  Na2SO4:10H2O
  Misenite        -58.63    -69.44  -10.81  K8H6(SO4)7
  Nahcolite        -3.23    -13.97  -10.74  NaHCO3
  Natron           -6.66     -7.48   -0.82  Na2CO3:10H2O
  Nesquehonite     -2.75     -7.92   -5.17  MgCO3:3H2O
  Pentahydrite     -1.67     -2.96   -1.28  MgSO4:5H2O
  Pirssonite       -6.76    -16.00   -9.23  Na2Ca(CO3)2:2H2O
  Polyhalite       -2.44    -16.19  -13.74  K2MgCa2(SO4)4:2H2O
  Portlandite     -10.85    -16.04   -5.19  Ca(OH)2
  Schoenite        -3.71     -8.03   -4.33  K2Mg(SO4)2:6H2O
  Sylvite          -1.32     -0.42    0.90  KCl
  Syngenite        -2.98     -9.41   -6.43  K2Ca(SO4)2:H2O
  Thenardite       -0.65     -0.95   -0.30  Na2SO4
  Trona            -9.03    -20.41  -11.38  Na3H(CO3)2:2H2O

**For a gas, SI = log10(fugacity). Fugacity = pressure * phi / 1 atm.
  For ideal gases, phi = 1.

------------------
End of simulation.
------------------

-------------------------------------
Reading input data for simulation 18.
-------------------------------------

