WARNING: Database file from DATABASE keyword is used; command line argument ignored.
   Input file: ppdump
  Output file: ppdump.out
Database file: ../database/phreeqc.dat

------------------
Reading data base.
------------------

	SOLUTION_MASTER_SPECIES
	SOLUTION_SPECIES
	PHASES
	GAS_BINARY_PARAMETERS
	EXCHANGE_MASTER_SPECIES
	EXCHANGE_SPECIES
	SURFACE_MASTER_SPECIES
	SURFACE_SPECIES
	MEAN_GAMMAS
	RATES
	END
------------------------------------
Reading input data for simulation 1.
------------------------------------

	DATABASE ../database/phreeqc.dat
	SELECTED_OUTPUT 101
	    file                 ppdump_101.sel
	USER_PUNCH 101
	    headings Mu SC
	    start
	10 PUNCH STR_F$(MU, 20, 12)
	20 PUNCH STR_F$(SC, 20, 10)
	    end
	SOLUTION 1-3
		Na	1
		Cl	1
	END
-------------------------------------------
Beginning of initial solution calculations.
-------------------------------------------

Initial solution 1.	

-----------------------------Solution composition------------------------------

	Elements           Molality       Moles

	Cl                1.000e-03   1.000e-03
	Na                1.000e-03   1.000e-03

----------------------------Description of solution----------------------------

                                       pH  =   7.000    
                                       pe  =   4.000    
      Specific Conductance (µS/cm,  25°C)  = 122
                          Density (g/cm³)  =   0.99708
                               Volume (L)  =   1.00298
                        Viscosity (mPa s)  =   0.89026
                        Activity of water  =   1.000
                 Ionic strength (mol/kgw)  =   1.000e-03
                       Mass of water (kg)  =   1.000e+00
                 Total alkalinity (eq/kg)  =   1.417e-09
                         Temperature (°C)  =  25.00
                  Electrical balance (eq)  =  -1.417e-09
 Percent error, 100*(Cat-|An|)/(Cat+|An|)  =  -0.00
                               Iterations  =   3
                                  Total H  = 1.110124e+02
                                  Total O  = 5.550622e+01

----------------------------Distribution of species----------------------------

                                               Log       Log       Log    mole V
   Species          Molality    Activity  Molality  Activity     Gamma   cm³/mol

   OH-             1.049e-07   1.012e-07    -6.979    -6.995    -0.016     -4.11
   H+              1.035e-07   1.000e-07    -6.985    -7.000    -0.015      0.00
   H2O             5.551e+01   1.000e+00     1.744    -0.000     0.000     18.07
Cl            1.000e-03
   Cl-             1.000e-03   9.649e-04    -3.000    -3.016    -0.016     18.07
   HCl             3.321e-11   3.324e-11   -10.479   -10.478     0.000     20.36
H(0)          1.416e-25
   H2              7.078e-26   7.079e-26   -25.150   -25.150     0.000     14.99
Na            1.000e-03
   Na+             1.000e-03   9.652e-04    -3.000    -3.015    -0.015     -1.48
O(0)          0.000e+00
   O2              0.000e+00   0.000e+00   -42.063   -42.063     0.000     30.40

------------------------------Saturation indices-------------------------------

  Phase               SI** log IAP   log K(298 K,   1 atm)

  H2(g)           -22.05    -25.15   -3.10  H2
  H2O(g)           -1.50     -0.00    1.50  H2O
  Halite           -7.60     -6.03    1.57  NaCl
  O2(g)           -39.17    -42.06   -2.89  O2

**For a gas, SI = log10(fugacity). Fugacity = pressure * phi / 1 atm.
  For ideal gases, phi = 1.

------------------
End of simulation.
------------------

------------------------------------
Reading input data for simulation 2.
------------------------------------

	EQUILIBRIUM_PHASES 1-3
		Barite	0	10
	END
------------------
End of simulation.
------------------

------------------------------------
Reading input data for simulation 3.
------------------------------------

	EXCHANGE 1-3
		X	1
		equilibrate	solution 1
	END
-------------------------------------------------------
Beginning of initial exchange-composition calculations.
-------------------------------------------------------

Exchange 1.	

X                1.000e+00 mol

	                               Equiv-    Equivalent      Log 
	Species             Moles      alents      Fraction     Gamma

	NaX               1.000e+00   1.000e+00   1.000e+00    -0.015

------------------
End of simulation.
------------------

------------------------------------
Reading input data for simulation 4.
------------------------------------

	SURFACE 1-3
	    equilibrate with solution 1
	    Hfo_s   0.01   600    1
	END
------------------------------------------------------
Beginning of initial surface-composition calculations.
------------------------------------------------------

Surface 1.	

Diffuse Double Layer Surface-Complexation Model

Hfo           
	  3.783e-05  Surface charge, eq
	  6.083e-03  sigma, C/m²
	  6.524e-02  psi, V
	 -2.540e+00  -F*psi/RT
	  7.890e-02  exp(-F*psi/RT)
	  6.000e+02  specific area, m²/g
	  6.000e+02  m² for   1.000e+00 g


Hfo_s         
	  1.000e-02  moles
	                                   Mole                     Log
	Species               Moles    Fraction    Molality    Molality

	Hfo_sOH           7.676e-03       0.768   7.676e-03      -2.115
	Hfo_sOH2+         1.181e-03       0.118   1.181e-03      -2.928
	Hfo_sO-           1.143e-03       0.114   1.143e-03      -2.942

------------------
End of simulation.
------------------

------------------------------------
Reading input data for simulation 5.
------------------------------------

	GAS_PHASE 1-3
	    fixed_pressure
	    pressure 1
	    volume 1
	    temperature 25
	    CO2(g)    0.00035
	END
------------------
End of simulation.
------------------

------------------------------------
Reading input data for simulation 6.
------------------------------------

	SOLID_SOLUTIONS 1-3
	    Calcite
	        component calcite 0.1
	        component siderite 0.001
	END
------------------
End of simulation.
------------------

------------------------------------
Reading input data for simulation 7.
------------------------------------

	KINETICS 1-3
	Calcite
	    formula  CaCO3  1
	    m        1
	    m0       1
	    parms    1 1 1 1
	    tol      1e-008
	steps       1 in 1 steps # seconds
	step_divide 1
	runge_kutta 3
	bad_step_max 500
	END
------------------
End of simulation.
------------------

------------------------------------
Reading input data for simulation 8.
------------------------------------

	DUMP
		-file	ppdump.dmp
		-solution 1	 	
			2
			3
		-equilibrium_phases	1-3
		-exchange		1
			2-3
		-surface
			1-3
		-solid_solution 1
			2 3
		-gas_phase	1
		-gas_phase      2-3
		-kinetics	1
		-kinetics	2
		-kinetics       3
	END
------------------
End of simulation.
------------------

------------------------------------
Reading input data for simulation 9.
------------------------------------

	REACTION 1-3
		NaCl  1
		0.001
	END	
------------------
End of simulation.
------------------

-------------------------------------
Reading input data for simulation 10.
-------------------------------------

	MIX 1
		1 0.5
	MIX 2   
		2 0.5
		3 0.5
	MIX 3
		3 0.5
		2 0.5
	USE mix none
	END
------------------
End of simulation.
------------------

-------------------------------------
Reading input data for simulation 11.
-------------------------------------

	REACTION_TEMPERATURE 1-3
		30
	END
------------------
End of simulation.
------------------

-------------------------------------
Reading input data for simulation 12.
-------------------------------------

	REACTION_PRESSURE 1-3
		100 200 300
	END
------------------
End of simulation.
------------------

-------------------------------------
Reading input data for simulation 13.
-------------------------------------

	DELETE 
		-mix 2
	END
------------------
End of simulation.
------------------

-------------------------------------
Reading input data for simulation 14.
-------------------------------------

	RUN_CELLS 
		-cells 2-3
		-time_step   10000
		-start_time  100
	END
--------------------------
Beginning of run as cells.
--------------------------

-----------------------------------------
Beginning of batch-reaction calculations.
-----------------------------------------

Reaction step 1.

Using solution 2.	
Using exchange 2.	Exchange assemblage after simulation 3.
Using surface 2.	
Using pure phase assemblage 2.	
Using solid solution assemblage 2.	
Using gas phase 2.	
Using temperature 2.	
Using pressure 2.	
Using reaction 2.	
Using kinetics 2.	

Reaction 2.	

	  1.000e-03 moles of the following reaction have been added:

	                 Relative
	Reactant            moles

	NaCl                 1.00000

	                 Relative
	Element             moles
	Cl                   1.00000
	Na                   1.00000

Kinetics 2.	

	Time step: 3333.33 seconds

	Rate name       Delta Moles Total Moles   Reactant        Coefficient

	Calcite          -2.862e-09   1.000e+00   CaCO3                     1

----------------Fixed-pressure gas phase 2 dissolved completely----------------

-------------------------------Phase assemblage--------------------------------

                                                      Moles in assemblage
Phase               SI  log IAP  log K(T, P)   Initial       Final       Delta

Barite            0.00    -9.75     -9.75    1.000e+01   9.997e+00  -2.523e-03

--------------------------------Solid solutions--------------------------------


Solid solution                Component        Moles  Delta moles   Mole fract

Calcite                                     8.85e-02
                                calcite     8.77e-02    -1.23e-02     9.91e-01
                               siderite     7.69e-04    -2.31e-04     8.69e-03

------------------------------Surface composition------------------------------

Diffuse Double Layer Surface-Complexation Model

Hfo           
	 -8.944e-05  Surface charge, eq
	 -1.438e-02  sigma, C/m²
	 -3.239e-02  psi, V
	  1.240e+00  -F*psi/RT
	  3.455e+00  exp(-F*psi/RT)
	  6.000e+02  specific area, m²/g
	  6.000e+02  m² for   1.000e+00 g


Hfo_s         
	  1.000e-02  moles
	                                   Mole                     Log
	Species               Moles    Fraction    Molality    Molality

	Hfo_sO-           5.626e-03       0.563   5.626e-03      -2.250
	Hfo_sOHCa+2       1.890e-03       0.189   1.890e-03      -2.724
	Hfo_sOH           1.487e-03       0.149   1.487e-03      -2.828
	Hfo_sOHBa+2       7.588e-04       0.076   7.588e-04      -3.120
	Hfo_sOFe+         2.304e-04       0.023   2.304e-04      -3.637
	Hfo_sOH2+         9.000e-06       0.001   9.000e-06      -5.046

-----------------------------Exchange composition------------------------------

X                1.000e+00 mol

	                               Equiv-    Equivalent      Log 
	Species             Moles      alents      Fraction     Gamma

	NaX               9.757e-01   9.757e-01   9.757e-01    -0.073
	CaX2              1.037e-02   2.074e-02   2.074e-02    -0.286
	BaX2              1.764e-03   3.528e-03   3.528e-03    -0.300
	FeX2              1.336e-07   2.673e-07   2.673e-07    -0.278

-----------------------------Solution composition------------------------------

	Elements           Molality       Moles

	Ba                5.820e-07   5.820e-07
	C                 1.252e-02   1.252e-02
	Ca                9.901e-06   9.901e-06
	Cl                2.000e-03   2.000e-03
	Fe                3.230e-09   3.230e-09
	Na                2.627e-02   2.627e-02
	S                 2.523e-03   2.523e-03

----------------------------Description of solution----------------------------

                                       pH  =  10.046      Charge balance
                                       pe  =  -6.139      Adjusted to redox equilibrium
      Specific Conductance (µS/cm,  30°C)  = 2970
                          Density (g/cm³)  =   1.00150
                               Volume (L)  =   1.00017
                        Viscosity (mPa s)  =   0.80293
                        Activity of water  =   0.999
                 Ionic strength (mol/kgw)  =   3.451e-02
                       Mass of water (kg)  =   1.000e+00
                 Total alkalinity (eq/kg)  =   1.912e-02
                       Total CO2 (mol/kg)  =   1.252e-02
                         Temperature (°C)  =  30.00
                           Pressure (atm)  = 100.00
                  Electrical balance (eq)  =   1.273e-04
 Percent error, 100*(Cat-|An|)/(Cat+|An|)  =   0.25
                               Iterations  =  23
                                  Total H  = 1.110183e+02
                                  Total O  = 5.555384e+01

----------------------------Distribution of species----------------------------

                                               Log       Log       Log    mole V
   Species          Molality    Activity  Molality  Activity     Gamma   cm³/mol

   OH-             2.130e-04   1.779e-04    -3.672    -3.750    -0.078     -3.53
   H+              1.035e-10   8.985e-11    -9.985   -10.046    -0.061      0.00
   H2O             5.551e+01   9.993e-01     1.744    -0.000     0.000     18.02
Ba            5.820e-07
   BaCO3           2.857e-07   2.880e-07    -6.544    -6.541     0.003    -10.04
   Ba+2            2.849e-07   1.554e-07    -6.545    -6.809    -0.263    -11.85
   BaHCO3+         1.126e-08   9.476e-09    -7.948    -8.023    -0.075     (0)  
   BaOH+           7.096e-11   6.000e-11   -10.149   -10.222    -0.073     (0)  
C(-4)         2.174e-14
   CH4             2.174e-14   2.192e-14   -13.663   -13.659     0.003     35.98
C(4)          1.252e-02
   CO3-2           6.383e-03   3.304e-03    -2.195    -2.481    -0.286     -2.67
   HCO3-           6.065e-03   5.148e-03    -2.217    -2.288    -0.071     25.57
   NaHCO3          5.972e-05   6.044e-05    -4.224    -4.219     0.005     18.76
   CaCO3           7.321e-06   7.379e-06    -5.135    -5.132     0.003    -13.89
   CO2             8.791e-07   8.837e-07    -6.056    -6.054     0.002     34.91
   BaCO3           2.857e-07   2.880e-07    -6.544    -6.541     0.003    -10.04
   BaHCO3+         1.126e-08   9.476e-09    -7.948    -8.023    -0.075     (0)  
   FeCO3           2.794e-09   2.817e-09    -8.554    -8.550     0.003     (0)  
   FeHCO3+         2.432e-11   2.047e-11   -10.614   -10.689    -0.075     (0)  
   CaHCO3+         1.816e-12   1.547e-12   -11.741   -11.810    -0.070     10.18
   (CO2)2          1.613e-14   1.622e-14   -13.792   -13.790     0.002     68.98
Ca            9.901e-06
   CaCO3           7.321e-06   7.379e-06    -5.135    -5.132     0.003    -13.89
   Ca+2            2.356e-06   1.220e-06    -5.628    -5.914    -0.286    -16.96
   CaSO4           2.214e-07   2.222e-07    -6.655    -6.653     0.002      7.88
   CaOH+           2.688e-09   2.262e-09    -8.571    -8.646    -0.075     (0)  
   CaHCO3+         1.816e-12   1.547e-12   -11.741   -11.810    -0.070     10.18
   CaHSO4+         1.946e-16   1.637e-16   -15.711   -15.786    -0.075     (0)  
Cl            2.000e-03
   Cl-             2.000e-03   1.674e-03    -2.699    -2.776    -0.077     18.39
   FeCl+           1.061e-13   8.931e-14   -12.974   -13.049    -0.075     (0)  
   HCl             4.812e-14   4.978e-14   -13.318   -13.303     0.015     20.68
   FeCl+2          4.054e-31   2.073e-31   -30.392   -30.683    -0.291     (0)  
   FeCl2+          1.688e-33   1.427e-33   -32.773   -32.846    -0.073     (0)  
   FeCl3           2.550e-37   2.570e-37   -36.593   -36.590     0.003     (0)  
Fe(2)         3.179e-09
   FeCO3           2.794e-09   2.817e-09    -8.554    -8.550     0.003     (0)  
   FeOH+           2.318e-10   1.960e-10    -9.635    -9.708    -0.073     (0)  
   Fe+2            7.402e-11   3.900e-11   -10.131   -10.409    -0.278    -20.65
   Fe(OH)2         3.033e-11   3.057e-11   -10.518   -10.515     0.003     (0)  
   FeHCO3+         2.432e-11   2.047e-11   -10.614   -10.689    -0.075     (0)  
   Fe(OH)3-        1.684e-11   1.424e-11   -10.774   -10.846    -0.073     (0)  
   FeSO4           7.512e-12   7.571e-12   -11.124   -11.121     0.003     30.44
   FeCl+           1.061e-13   8.931e-14   -12.974   -13.049    -0.075     (0)  
   FeHSO4+         6.128e-21   5.157e-21   -20.213   -20.288    -0.075     (0)  
   Fe(HS)2         4.623e-25   4.659e-25   -24.335   -24.332     0.003     (0)  
   Fe(HS)3-        2.300e-34   1.936e-34   -33.638   -33.713    -0.075     (0)  
Fe(3)         5.085e-11
   Fe(OH)4-        4.782e-11   4.056e-11   -10.320   -10.392    -0.071     (0)  
   Fe(OH)3         3.031e-12   3.055e-12   -11.518   -11.515     0.003     (0)  
   Fe(OH)2+        1.888e-15   1.602e-15   -14.724   -14.795    -0.071     (0)  
   FeOH+2          6.571e-22   3.360e-22   -21.182   -21.474    -0.291     (0)  
   FeSO4+          5.765e-29   4.875e-29   -28.239   -28.312    -0.073     (0)  
   Fe+3            1.163e-29   3.261e-30   -28.935   -29.487    -0.552     (0)  
   Fe(SO4)2-       1.580e-30   1.330e-30   -29.801   -29.876    -0.075     (0)  
   FeCl+2          4.054e-31   2.073e-31   -30.392   -30.683    -0.291     (0)  
   FeCl2+          1.688e-33   1.427e-33   -32.773   -32.846    -0.073     (0)  
   FeCl3           2.550e-37   2.570e-37   -36.593   -36.590     0.003     (0)  
   FeHSO4+2        2.344e-38   1.176e-38   -37.630   -37.930    -0.300     (0)  
   Fe2(OH)2+4      0.000e+00   0.000e+00   -40.407   -41.606    -1.199     (0)  
   Fe3(OH)4+5      0.000e+00   0.000e+00   -52.405   -54.278    -1.873     (0)  
H(0)          1.927e-11
   H2              9.633e-12   9.714e-12   -11.016   -11.013     0.004     15.38
Na            2.627e-02
   Na+             2.594e-02   2.191e-02    -1.586    -1.659    -0.073     -0.71
   NaSO4-          2.742e-04   2.309e-04    -3.562    -3.637    -0.075     18.08
   NaHCO3          5.972e-05   6.044e-05    -4.224    -4.219     0.005     18.76
   Na2SO4          3.565e-09   3.591e-09    -8.448    -8.445     0.003     45.94
O(0)          0.000e+00
   O2              0.000e+00   0.000e+00   -68.757   -68.754     0.003     30.61
S(-2)         4.219e-12
   HS-             4.203e-12   3.509e-12   -11.376   -11.455    -0.078     20.98
   S-2             1.405e-14   7.182e-15   -13.852   -14.144    -0.291     (0)  
   H2S             2.231e-15   2.249e-15   -14.652   -14.648     0.003     36.27
   Fe(HS)2         4.623e-25   4.659e-25   -24.335   -24.332     0.003     (0)  
   (H2S)2          3.473e-31   3.501e-31   -30.459   -30.456     0.003     34.33
   Fe(HS)3-        2.300e-34   1.936e-34   -33.638   -33.713    -0.075     (0)  
S(6)          2.523e-03
   SO4-2           2.249e-03   1.146e-03    -2.648    -2.941    -0.293     16.28
   NaSO4-          2.742e-04   2.309e-04    -3.562    -3.637    -0.075     18.08
   CaSO4           2.214e-07   2.222e-07    -6.655    -6.653     0.002      7.88
   Na2SO4          3.565e-09   3.591e-09    -8.448    -8.445     0.003     45.94
   HSO4-           1.208e-11   1.016e-11   -10.918   -10.993    -0.075     40.49
   FeSO4           7.512e-12   7.571e-12   -11.124   -11.121     0.003     30.44
   CaHSO4+         1.946e-16   1.637e-16   -15.711   -15.786    -0.075     (0)  
   FeHSO4+         6.128e-21   5.157e-21   -20.213   -20.288    -0.075     (0)  
   FeSO4+          5.765e-29   4.875e-29   -28.239   -28.312    -0.073     (0)  
   Fe(SO4)2-       1.580e-30   1.330e-30   -29.801   -29.876    -0.075     (0)  
   FeHSO4+2        2.344e-38   1.176e-38   -37.630   -37.930    -0.300     (0)  

------------------------------Saturation indices-------------------------------

  Phase               SI** log IAP   log K(303 K, 100 atm)

  Anhydrite        -4.54     -8.85   -4.31  CaSO4
  Aragonite        -0.12     -8.39   -8.28  CaCO3
  Barite            0.00     -9.75   -9.75  BaSO4
  Calcite          -0.00     -8.39   -8.39  CaCO3
  CH4(g)          -10.75    -13.66   -2.91  CH4
  CO2(g)           -4.47     -6.05   -1.58  CO2
  Fe(OH)3(a)       -4.15      0.65    4.80  Fe(OH)3
  FeS(ppt)         -7.90    -11.82   -3.92  FeS
  Goethite          1.85      0.65   -1.20  FeOOH
  Gypsum           -4.35     -8.85   -4.50  CaSO4:2H2O
  H2(g)            -7.88    -11.01   -3.13  H2
  H2O(g)           -1.35     -0.00    1.35  H2O
  H2S(g)          -13.54    -21.50   -7.96  H2S
  Halite           -6.03     -4.44    1.59  NaCl
  Hematite          5.73      1.30   -4.42  Fe2O3
  Mackinawite      -7.20    -11.82   -4.61  FeS
  Melanterite     -10.99    -13.35   -2.36  FeSO4:7H2O
  Mirabilite       -5.96     -6.26   -0.30  Na2SO4:10H2O
  O2(g)           -65.77    -68.75   -2.98  O2
  Pyrite           -7.17    -25.50  -18.34  FeS2
  Siderite         -2.06    -12.89  -10.83  FeCO3
  Sulfur          -11.54     -6.83    4.70  S
  Thenardite       -6.91     -6.26    0.65  Na2SO4
  Witherite        -0.84     -9.29   -8.45  BaCO3

**For a gas, SI = log10(fugacity). Fugacity = pressure * phi / 1 atm.
  For ideal gases, phi = 1.

Reaction step 2.

Using solution 2.	
Using exchange 2.	Exchange assemblage after simulation 3.
Using surface 2.	
Using pure phase assemblage 2.	
Using solid solution assemblage 2.	
Using gas phase 2.	
Using temperature 2.	
Using pressure 2.	
Using reaction 2.	
Using kinetics 2.	

Reaction 2.	

	  1.000e-03 moles of the following reaction have been added:

	                 Relative
	Reactant            moles

	NaCl                 1.00000

	                 Relative
	Element             moles
	Cl                   1.00000
	Na                   1.00000

Kinetics 2.	

	Time step: 6666.67 seconds

	Rate name       Delta Moles Total Moles   Reactant        Coefficient

	Calcite          -5.790e-09   1.000e+00   CaCO3                     1

----------------Fixed-pressure gas phase 2 dissolved completely----------------

-------------------------------Phase assemblage--------------------------------

                                                      Moles in assemblage
Phase               SI  log IAP  log K(T, P)   Initial       Final       Delta

Barite           -0.00    -9.67     -9.67    1.000e+01   9.997e+00  -2.620e-03

--------------------------------Solid solutions--------------------------------


Solid solution                Component        Moles  Delta moles   Mole fract

Calcite                                     8.81e-02
                                calcite     8.73e-02    -1.27e-02     9.91e-01
                               siderite     7.75e-04    -2.25e-04     8.79e-03

------------------------------Surface composition------------------------------

Diffuse Double Layer Surface-Complexation Model

Hfo           
	 -8.706e-05  Surface charge, eq
	 -1.400e-02  sigma, C/m²
	 -3.100e-02  psi, V
	  1.187e+00  -F*psi/RT
	  3.277e+00  exp(-F*psi/RT)
	  6.000e+02  specific area, m²/g
	  6.000e+02  m² for   1.000e+00 g


Hfo_s         
	  1.000e-02  moles
	                                   Mole                     Log
	Species               Moles    Fraction    Molality    Molality

	Hfo_sO-           5.624e-03       0.562   5.624e-03      -2.250
	Hfo_sOHCa+2       1.885e-03       0.189   1.886e-03      -2.725
	Hfo_sOH           1.491e-03       0.149   1.491e-03      -2.827
	Hfo_sOHBa+2       7.660e-04       0.077   7.660e-04      -3.116
	Hfo_sOFe+         2.249e-04       0.022   2.249e-04      -3.648
	Hfo_sOH2+         9.050e-06       0.001   9.050e-06      -5.043

-----------------------------Exchange composition------------------------------

X                1.000e+00 mol

	                               Equiv-    Equivalent      Log 
	Species             Moles      alents      Fraction     Gamma

	NaX               9.748e-01   9.748e-01   9.748e-01    -0.074
	CaX2              1.076e-02   2.151e-02   2.151e-02    -0.288
	BaX2              1.853e-03   3.706e-03   3.706e-03    -0.304
	FeX2              1.359e-07   2.718e-07   2.718e-07    -0.281

-----------------------------Solution composition------------------------------

	Elements           Molality       Moles

	Ba                6.958e-07   6.958e-07
	C                 1.289e-02   1.289e-02
	Ca                1.199e-05   1.199e-05
	Cl                2.000e-03   2.000e-03
	Fe                3.671e-09   3.671e-09
	Na                2.722e-02   2.722e-02
	S                 2.620e-03   2.620e-03

----------------------------Description of solution----------------------------

                                       pH  =  10.022      Charge balance
                                       pe  =  -6.135      Adjusted to redox equilibrium
      Specific Conductance (µS/cm,  30°C)  = 3098
                          Density (g/cm³)  =   1.00591
                               Volume (L)  =   0.99585
                        Viscosity (mPa s)  =   0.80336
                        Activity of water  =   0.999
                 Ionic strength (mol/kgw)  =   3.590e-02
                       Mass of water (kg)  =   1.000e+00
                 Total alkalinity (eq/kg)  =   1.988e-02
                       Total CO2 (mol/kg)  =   1.289e-02
                         Temperature (°C)  =  30.00
                           Pressure (atm)  = 200.00
                  Electrical balance (eq)  =   1.249e-04
 Percent error, 100*(Cat-|An|)/(Cat+|An|)  =   0.23
                               Iterations  =  23
                                  Total H  = 1.110183e+02
                                  Total O  = 5.555536e+01

----------------------------Distribution of species----------------------------

                                               Log       Log       Log    mole V
   Species          Molality    Activity  Molality  Activity     Gamma   cm³/mol

   OH-             2.196e-04   1.829e-04    -3.658    -3.738    -0.079     -3.30
   H+              1.096e-10   9.503e-11    -9.960   -10.022    -0.062      0.00
   H2O             5.551e+01   9.992e-01     1.744    -0.000     0.000     17.94
Ba            6.958e-07
   BaCO3           3.473e-07   3.502e-07    -6.459    -6.456     0.004     -9.46
   Ba+2            3.343e-07   1.814e-07    -6.476    -6.741    -0.266    -11.09
   BaHCO3+         1.400e-08   1.176e-08    -7.854    -7.930    -0.076     (0)  
   BaOH+           8.086e-11   6.826e-11   -10.092   -10.166    -0.074     (0)  
C(-4)         2.570e-14
   CH4             2.570e-14   2.591e-14   -13.590   -13.587     0.004     36.09
C(4)          1.289e-02
   CO3-2           6.760e-03   3.476e-03    -2.170    -2.459    -0.289     -1.83
   HCO3-           6.061e-03   5.136e-03    -2.217    -2.289    -0.072     25.85
   NaHCO3          6.306e-05   6.385e-05    -4.200    -4.195     0.005     19.46
   CaCO3           8.929e-06   9.003e-06    -5.049    -5.046     0.004    -13.24
   CO2             8.341e-07   8.386e-07    -6.079    -6.076     0.002     34.80
   BaCO3           3.473e-07   3.502e-07    -6.459    -6.456     0.004     -9.46
   BaHCO3+         1.400e-08   1.176e-08    -7.854    -7.930    -0.076     (0)  
   FeCO3           3.178e-09   3.204e-09    -8.498    -8.494     0.004     (0)  
   FeHCO3+         2.932e-11   2.463e-11   -10.533   -10.609    -0.076     (0)  
   CaHCO3+         2.138e-12   1.818e-12   -11.670   -11.740    -0.070     10.41
   (CO2)2          1.457e-14   1.465e-14   -13.836   -13.834     0.002     68.76
Ca            1.199e-05
   CaCO3           8.929e-06   9.003e-06    -5.049    -5.046     0.004    -13.24
   Ca+2            2.794e-06   1.438e-06    -5.554    -5.842    -0.288    -16.30
   CaSO4           2.618e-07   2.628e-07    -6.582    -6.580     0.002      8.05
   CaOH+           3.027e-09   2.543e-09    -8.519    -8.595    -0.076     (0)  
   CaHCO3+         2.138e-12   1.818e-12   -11.670   -11.740    -0.070     10.41
   CaHSO4+         2.520e-16   2.117e-16   -15.599   -15.674    -0.076     (0)  
Cl            2.000e-03
   Cl-             2.000e-03   1.671e-03    -2.699    -2.777    -0.078     18.44
   FeCl+           1.241e-13   1.042e-13   -12.906   -12.982    -0.076     (0)  
   HCl             5.028e-14   5.208e-14   -13.299   -13.283     0.015     20.67
   FeCl+2          4.811e-31   2.443e-31   -30.318   -30.612    -0.294     (0)  
   FeCl2+          2.142e-33   1.808e-33   -32.669   -32.743    -0.074     (0)  
   FeCl3           3.472e-37   3.501e-37   -36.459   -36.456     0.004     (0)  
Fe(2)         3.612e-09
   FeCO3           3.178e-09   3.204e-09    -8.498    -8.494     0.004     (0)  
   FeOH+           2.560e-10   2.161e-10    -9.592    -9.665    -0.074     (0)  
   Fe+2            8.733e-11   4.573e-11   -10.059   -10.340    -0.281    -19.91
   Fe(OH)2         3.396e-11   3.424e-11   -10.469   -10.465     0.004     (0)  
   FeHCO3+         2.932e-11   2.463e-11   -10.533   -10.609    -0.076     (0)  
   Fe(OH)3-        1.920e-11   1.621e-11   -10.717   -10.790    -0.074     (0)  
   FeSO4           7.977e-12   8.043e-12   -11.098   -11.095     0.004     30.29
   FeCl+           1.241e-13   1.042e-13   -12.906   -12.982    -0.076     (0)  
   FeHSO4+         7.785e-21   6.540e-21   -20.109   -20.184    -0.076     (0)  
   Fe(HS)2         8.071e-25   8.138e-25   -24.093   -24.089     0.004     (0)  
   Fe(HS)3-        5.105e-34   4.288e-34   -33.292   -33.368    -0.076     (0)  
Fe(3)         5.941e-11
   Fe(OH)4-        5.592e-11   4.735e-11   -10.252   -10.325    -0.072     (0)  
   Fe(OH)3         3.482e-12   3.511e-12   -11.458   -11.455     0.004     (0)  
   Fe(OH)2+        2.140e-15   1.812e-15   -14.670   -14.742    -0.072     (0)  
   FeOH+2          7.369e-22   3.742e-22   -21.133   -21.427    -0.294     (0)  
   FeSO4+          6.994e-29   5.904e-29   -28.155   -28.229    -0.074     (0)  
   Fe+3            1.287e-29   3.575e-30   -28.890   -29.447    -0.556     (0)  
   Fe(SO4)2-       2.117e-30   1.779e-30   -29.674   -29.750    -0.076     (0)  
   FeCl+2          4.811e-31   2.443e-31   -30.318   -30.612    -0.294     (0)  
   FeCl2+          2.142e-33   1.808e-33   -32.669   -32.743    -0.074     (0)  
   FeCl3           3.472e-37   3.501e-37   -36.459   -36.456     0.004     (0)  
   FeHSO4+2        3.023e-38   1.506e-38   -37.519   -37.822    -0.303     (0)  
   Fe2(OH)2+4      0.000e+00   0.000e+00   -40.301   -41.512    -1.211     (0)  
   Fe3(OH)4+5      0.000e+00   0.000e+00   -52.239   -54.131    -1.892     (0)  
H(0)          1.985e-11
   H2              9.925e-12   1.001e-11   -11.003   -11.000     0.004     15.42
Na            2.722e-02
   Na+             2.687e-02   2.266e-02    -1.571    -1.645    -0.074     -0.41
   NaSO4-          2.906e-04   2.443e-04    -3.537    -3.612    -0.075     18.52
   NaHCO3          6.306e-05   6.385e-05    -4.200    -4.195     0.005     19.46
   Na2SO4          3.490e-09   3.515e-09    -8.457    -8.454     0.003     46.20
O(0)          0.000e+00
   O2              0.000e+00   0.000e+00   -68.828   -68.825     0.004     30.45
S(-2)         4.929e-12
   HS-             4.909e-12   4.091e-12   -11.309   -11.388    -0.079     21.01
   S-2             1.696e-14   8.614e-15   -13.770   -14.065    -0.294     (0)  
   H2S             2.608e-15   2.630e-15   -14.584   -14.580     0.004     35.19
   Fe(HS)2         8.071e-25   8.138e-25   -24.093   -24.089     0.004     (0)  
   (H2S)2          5.264e-31   5.308e-31   -30.279   -30.275     0.004     38.52
   Fe(HS)3-        5.105e-34   4.288e-34   -33.292   -33.368    -0.076     (0)  
S(6)          2.620e-03
   SO4-2           2.329e-03   1.178e-03    -2.633    -2.929    -0.296     17.07
   NaSO4-          2.906e-04   2.443e-04    -3.537    -3.612    -0.075     18.52
   CaSO4           2.618e-07   2.628e-07    -6.582    -6.580     0.002      8.05
   Na2SO4          3.490e-09   3.515e-09    -8.457    -8.454     0.003     46.20
   HSO4-           1.203e-11   1.011e-11   -10.920   -10.995    -0.076     40.28
   FeSO4           7.977e-12   8.043e-12   -11.098   -11.095     0.004     30.29
   CaHSO4+         2.520e-16   2.117e-16   -15.599   -15.674    -0.076     (0)  
   FeHSO4+         7.785e-21   6.540e-21   -20.109   -20.184    -0.076     (0)  
   FeSO4+          6.994e-29   5.904e-29   -28.155   -28.229    -0.074     (0)  
   Fe(SO4)2-       2.117e-30   1.779e-30   -29.674   -29.750    -0.076     (0)  
   FeHSO4+2        3.023e-38   1.506e-38   -37.519   -37.822    -0.303     (0)  

------------------------------Saturation indices-------------------------------

  Phase               SI** log IAP   log K(303 K, 200 atm)

  Anhydrite        -4.53     -8.77   -4.24  CaSO4
  Aragonite        -0.11     -8.30   -8.19  CaCO3
  Barite           -0.00     -9.67   -9.67  BaSO4
  Calcite          -0.00     -8.30   -8.30  CaCO3
  CH4(g)          -10.62    -13.59   -2.97  CH4
  CO2(g)           -4.43     -6.08   -1.65  CO2
  Fe(OH)3(a)       -4.09      0.62    4.70  Fe(OH)3
  FeS(ppt)         -7.79    -11.71   -3.92  FeS
  Goethite          1.85      0.62   -1.23  FeOOH
  Gypsum           -4.33     -8.77   -4.44  CaSO4:2H2O
  H2(g)            -7.84    -11.00   -3.16  H2
  H2O(g)           -1.31     -0.00    1.31  H2O
  H2S(g)          -13.41    -21.41   -8.00  H2S
  Halite           -6.03     -4.42    1.61  NaCl
  Hematite          5.70      1.24   -4.46  Fe2O3
  Mackinawite      -7.13    -11.71   -4.58  FeS
  Melanterite     -10.69    -13.27   -2.58  FeSO4:7H2O
  Mirabilite       -5.96     -6.22   -0.27  Na2SO4:10H2O
  O2(g)           -65.79    -68.82   -3.03  O2
  Pyrite           -7.00    -25.34  -18.34  FeS2
  Siderite         -2.06    -12.80  -10.74  FeCO3
  Sulfur          -11.45     -6.81    4.64  S
  Thenardite       -6.93     -6.22    0.71  Na2SO4
  Witherite        -0.85     -9.20   -8.35  BaCO3

**For a gas, SI = log10(fugacity). Fugacity = pressure * phi / 1 atm.
  For ideal gases, phi = 1.

Reaction step 3.

Using solution 2.	
Using exchange 2.	Exchange assemblage after simulation 3.
Using surface 2.	
Using pure phase assemblage 2.	
Using solid solution assemblage 2.	
Using gas phase 2.	
Using temperature 2.	
Using pressure 2.	
Using reaction 2.	
Using kinetics 2.	

Reaction 2.	

	  1.000e-03 moles of the following reaction have been added:

	                 Relative
	Reactant            moles

	NaCl                 1.00000

	                 Relative
	Element             moles
	Cl                   1.00000
	Na                   1.00000

Kinetics 2.	

	Time step: 10000 seconds

	Rate name       Delta Moles Total Moles   Reactant        Coefficient

	Calcite          -8.783e-09   1.000e+00   CaCO3                     1

----------------Fixed-pressure gas phase 2 dissolved completely----------------

-------------------------------Phase assemblage--------------------------------

                                                      Moles in assemblage
Phase               SI  log IAP  log K(T, P)   Initial       Final       Delta

Barite            0.00    -9.60     -9.60    1.000e+01   9.997e+00  -2.712e-03

--------------------------------Solid solutions--------------------------------


Solid solution                Component        Moles  Delta moles   Mole fract

Calcite                                     8.78e-02
                                calcite     8.70e-02    -1.30e-02     9.91e-01
                               siderite     7.81e-04    -2.19e-04     8.90e-03

------------------------------Surface composition------------------------------

Diffuse Double Layer Surface-Complexation Model

Hfo           
	 -8.454e-05  Surface charge, eq
	 -1.360e-02  sigma, C/m²
	 -2.964e-02  psi, V
	  1.135e+00  -F*psi/RT
	  3.110e+00  exp(-F*psi/RT)
	  6.000e+02  specific area, m²/g
	  6.000e+02  m² for   1.000e+00 g


Hfo_s         
	  1.000e-02  moles
	                                   Mole                     Log
	Species               Moles    Fraction    Molality    Molality

	Hfo_sO-           5.622e-03       0.562   5.622e-03      -2.250
	Hfo_sOHCa+2       1.882e-03       0.188   1.882e-03      -2.725
	Hfo_sOH           1.495e-03       0.150   1.495e-03      -2.825
	Hfo_sOHBa+2       7.726e-04       0.077   7.726e-04      -3.112
	Hfo_sOFe+         2.193e-04       0.022   2.193e-04      -3.659
	Hfo_sOH2+         9.114e-06       0.001   9.114e-06      -5.040

-----------------------------Exchange composition------------------------------

X                1.000e+00 mol

	                               Equiv-    Equivalent      Log 
	Species             Moles      alents      Fraction     Gamma

	NaX               9.739e-01   9.739e-01   9.739e-01    -0.075
	CaX2              1.113e-02   2.226e-02   2.226e-02    -0.291
	BaX2              1.939e-03   3.878e-03   3.878e-03    -0.306
	FeX2              1.379e-07   2.758e-07   2.758e-07    -0.283

-----------------------------Solution composition------------------------------

	Elements           Molality       Moles

	Ba                8.261e-07   8.261e-07
	C                 1.326e-02   1.326e-02
	Ca                1.444e-05   1.444e-05
	Cl                2.000e-03   2.000e-03
	Fe                4.170e-09   4.170e-09
	Na                2.814e-02   2.814e-02
	S                 2.712e-03   2.712e-03

----------------------------Description of solution----------------------------

                                       pH  =   9.998      Charge balance
                                       pe  =  -6.133      Adjusted to redox equilibrium
      Specific Conductance (µS/cm,  30°C)  = 3223
                          Density (g/cm³)  =   1.01024
                               Volume (L)  =   0.99162
                        Viscosity (mPa s)  =   0.80404
                        Activity of water  =   0.999
                 Ionic strength (mol/kgw)  =   3.724e-02
                       Mass of water (kg)  =   1.000e+00
                 Total alkalinity (eq/kg)  =   2.062e-02
                       Total CO2 (mol/kg)  =   1.326e-02
                         Temperature (°C)  =  30.00
                           Pressure (atm)  = 300.00
                  Electrical balance (eq)  =   1.224e-04
 Percent error, 100*(Cat-|An|)/(Cat+|An|)  =   0.22
                               Iterations  =  22
                                  Total H  = 1.110183e+02
                                  Total O  = 5.555683e+01

----------------------------Distribution of species----------------------------

                                               Log       Log       Log    mole V
   Species          Molality    Activity  Molality  Activity     Gamma   cm³/mol

   OH-             2.257e-04   1.877e-04    -3.646    -3.726    -0.080     -3.08
   H+              1.160e-10   1.005e-10    -9.936    -9.998    -0.062      0.00
   H2O             5.551e+01   9.992e-01     1.744    -0.000     0.000     17.86
Ba            8.261e-07
   BaCO3           4.200e-07   4.236e-07    -6.377    -6.373     0.004     -8.92
   Ba+2            3.887e-07   2.098e-07    -6.410    -6.678    -0.268    -10.37
   BaHCO3+         1.738e-08   1.458e-08    -7.760    -7.836    -0.076     (0)  
   BaOH+           9.177e-11   7.734e-11   -10.037   -10.112    -0.074     (0)  
C(-4)         3.186e-14
   CH4             3.186e-14   3.214e-14   -13.497   -13.493     0.004     36.19
C(4)          1.326e-02
   CO3-2           7.126e-03   3.642e-03    -2.147    -2.439    -0.291     -1.04
   HCO3-           6.056e-03   5.124e-03    -2.218    -2.290    -0.073     26.13
   NaHCO3          6.639e-05   6.725e-05    -4.178    -4.172     0.006     20.11
   CaCO3           1.084e-05   1.093e-05    -4.965    -4.961     0.004    -12.64
   CO2             7.941e-07   7.986e-07    -6.100    -6.098     0.002     34.69
   BaCO3           4.200e-07   4.236e-07    -6.377    -6.373     0.004     -8.92
   BaHCO3+         1.738e-08   1.458e-08    -7.760    -7.836    -0.076     (0)  
   FeCO3           3.613e-09   3.644e-09    -8.442    -8.438     0.004     (0)  
   FeHCO3+         3.532e-11   2.962e-11   -10.452   -10.528    -0.076     (0)  
   CaHCO3+         2.512e-12   2.134e-12   -11.600   -11.671    -0.071     10.62
   (CO2)2          1.326e-14   1.333e-14   -13.877   -13.875     0.002     68.55
Ca            1.444e-05
   CaCO3           1.084e-05   1.093e-05    -4.965    -4.961     0.004    -12.64
   Ca+2            3.289e-06   1.683e-06    -5.483    -5.774    -0.291    -15.68
   CaSO4           3.097e-07   3.109e-07    -6.509    -6.507     0.002      8.20
   CaOH+           3.400e-09   2.851e-09    -8.469    -8.545    -0.076     (0)  
   CaHCO3+         2.512e-12   2.134e-12   -11.600   -11.671    -0.071     10.62
   CaHSO4+         3.268e-16   2.741e-16   -15.486   -15.562    -0.076     (0)  
Cl            2.000e-03
   Cl-             2.000e-03   1.668e-03    -2.699    -2.778    -0.079     18.49
   FeCl+           1.448e-13   1.214e-13   -12.839   -12.916    -0.076     (0)  
   HCl             5.257e-14   5.453e-14   -13.279   -13.263     0.016     20.67
   FeCl+2          5.664e-31   2.858e-31   -30.247   -30.544    -0.297     (0)  
   FeCl2+          2.699e-33   2.275e-33   -32.569   -32.643    -0.074     (0)  
   FeCl3           4.698e-37   4.738e-37   -36.328   -36.324     0.004     (0)  
Fe(2)         4.101e-09
   FeCO3           3.613e-09   3.644e-09    -8.442    -8.438     0.004     (0)  
   FeOH+           2.820e-10   2.377e-10    -9.550    -9.624    -0.074     (0)  
   Fe+2            1.022e-10   5.321e-11    -9.991   -10.274    -0.283    -19.23
   Fe(OH)2         3.791e-11   3.823e-11   -10.421   -10.418     0.004     (0)  
   FeHCO3+         3.532e-11   2.962e-11   -10.452   -10.528    -0.076     (0)  
   Fe(OH)3-        2.180e-11   1.837e-11   -10.662   -10.736    -0.074     (0)  
   FeSO4           8.489e-12   8.562e-12   -11.071   -11.067     0.004     30.16
   FeCl+           1.448e-13   1.214e-13   -12.839   -12.916    -0.076     (0)  
   FeHSO4+         9.899e-21   8.303e-21   -20.004   -20.081    -0.076     (0)  
   Fe(HS)2         1.556e-24   1.570e-24   -23.808   -23.804     0.004     (0)  
   Fe(HS)3-        1.316e-33   1.104e-33   -32.881   -32.957    -0.076     (0)  
Fe(3)         6.869e-11
   Fe(OH)4-        6.473e-11   5.473e-11   -10.189   -10.262    -0.073     (0)  
   Fe(OH)3         3.962e-12   3.996e-12   -11.402   -11.398     0.004     (0)  
   Fe(OH)2+        2.403e-15   2.032e-15   -14.619   -14.692    -0.073     (0)  
   FeOH+2          8.189e-22   4.132e-22   -21.087   -21.384    -0.297     (0)  
   FeSO4+          8.444e-29   7.117e-29   -28.073   -28.148    -0.074     (0)  
   Fe+3            1.413e-29   3.888e-30   -28.850   -29.410    -0.560     (0)  
   Fe(SO4)2-       2.833e-30   2.376e-30   -29.548   -29.624    -0.076     (0)  
   FeCl+2          5.664e-31   2.858e-31   -30.247   -30.544    -0.297     (0)  
   FeCl2+          2.699e-33   2.275e-33   -32.569   -32.643    -0.074     (0)  
   FeCl3           4.698e-37   4.738e-37   -36.328   -36.324     0.004     (0)  
   FeHSO4+2        3.879e-38   1.920e-38   -37.411   -37.717    -0.305     (0)  
   Fe2(OH)2+4      0.000e+00   0.000e+00   -40.204   -41.426    -1.222     (0)  
   Fe3(OH)4+5      0.000e+00   0.000e+00   -52.086   -53.995    -1.909     (0)  
H(0)          2.068e-11
   H2              1.034e-11   1.043e-11   -10.986   -10.982     0.004     15.46
Na            2.814e-02
   Na+             2.776e-02   2.338e-02    -1.557    -1.631    -0.075     -0.14
   NaSO4-          3.080e-04   2.585e-04    -3.511    -3.588    -0.076     18.94
   NaHCO3          6.639e-05   6.725e-05    -4.178    -4.172     0.006     20.11
   Na2SO4          3.421e-09   3.447e-09    -8.466    -8.463     0.003     46.44
O(0)          0.000e+00
   O2              0.000e+00   0.000e+00   -68.909   -68.905     0.004     30.31
S(-2)         6.055e-12
   HS-             6.030e-12   5.015e-12   -11.220   -11.300    -0.080     21.04
   S-2             2.154e-14   1.087e-14   -13.667   -13.964    -0.297     (0)  
   H2S             3.234e-15   3.262e-15   -14.490   -14.487     0.004     34.18
   Fe(HS)2         1.556e-24   1.570e-24   -23.808   -23.804     0.004     (0)  
   (H2S)2          8.567e-31   8.640e-31   -30.067   -30.063     0.004     42.42
   Fe(HS)3-        1.316e-33   1.104e-33   -32.881   -32.957    -0.076     (0)  
S(6)          2.712e-03
   SO4-2           2.404e-03   1.209e-03    -2.619    -2.918    -0.299     17.81
   NaSO4-          3.080e-04   2.585e-04    -3.511    -3.588    -0.076     18.94
   CaSO4           3.097e-07   3.109e-07    -6.509    -6.507     0.002      8.20
   Na2SO4          3.421e-09   3.447e-09    -8.466    -8.463     0.003     46.44
   HSO4-           1.204e-11   1.010e-11   -10.919   -10.996    -0.076     40.09
   FeSO4           8.489e-12   8.562e-12   -11.071   -11.067     0.004     30.16
   CaHSO4+         3.268e-16   2.741e-16   -15.486   -15.562    -0.076     (0)  
   FeHSO4+         9.899e-21   8.303e-21   -20.004   -20.081    -0.076     (0)  
   FeSO4+          8.444e-29   7.117e-29   -28.073   -28.148    -0.074     (0)  
   Fe(SO4)2-       2.833e-30   2.376e-30   -29.548   -29.624    -0.076     (0)  
   FeHSO4+2        3.879e-38   1.920e-38   -37.411   -37.717    -0.305     (0)  

------------------------------Saturation indices-------------------------------

  Phase               SI** log IAP   log K(303 K, 300 atm)

  Anhydrite        -4.53     -8.69   -4.16  CaSO4
  Aragonite        -0.11     -8.21   -8.10  CaCO3
  Barite            0.00     -9.60   -9.60  BaSO4
  Calcite          -0.00     -8.21   -8.21  CaCO3
  CH4(g)          -10.46    -13.49   -3.03  CH4
  CO2(g)           -4.39     -6.10   -1.71  CO2
  Fe(OH)3(a)       -4.03      0.58    4.61  Fe(OH)3
  FeS(ppt)         -7.65    -11.58   -3.92  FeS
  Goethite          1.84      0.58   -1.25  FeOOH
  Gypsum           -4.31     -8.69   -4.38  CaSO4:2H2O
  H2(g)            -7.79    -10.98   -3.19  H2
  H2O(g)           -1.28     -0.00    1.28  H2O
  H2S(g)          -13.26    -21.30   -8.04  H2S
  Halite           -6.03     -4.41    1.62  NaCl
  Hematite          5.67      1.17   -4.50  Fe2O3
  Mackinawite      -7.03    -11.58   -4.55  FeS
  Melanterite     -10.40    -13.19   -2.80  FeSO4:7H2O
  Mirabilite       -5.95     -6.18   -0.23  Na2SO4:10H2O
  O2(g)           -65.82    -68.91   -3.08  O2
  Pyrite           -6.80    -25.14  -18.34  FeS2
  Siderite         -2.05    -12.71  -10.66  FeCO3
  Sulfur          -11.35     -6.76    4.59  S
  Thenardite       -6.95     -6.18    0.77  Na2SO4
  Witherite        -0.86     -9.12   -8.26  BaCO3

**For a gas, SI = log10(fugacity). Fugacity = pressure * phi / 1 atm.
  For ideal gases, phi = 1.

-----------------------------------------
Beginning of batch-reaction calculations.
-----------------------------------------

Reaction step 1.

Using mix 3.	
Using exchange 3.	Exchange assemblage after simulation 3.
Using surface 3.	
Using pure phase assemblage 3.	
Using solid solution assemblage 3.	
Using gas phase 3.	
Using temperature 3.	
Using pressure 3.	
Using reaction 3.	
Using kinetics 3.	

Mixture 3.	

	  5.000e-01 Solution 2	Solution after simulation 14.                          
	  5.000e-01 Solution 3	                                                       

Reaction 3.	

	  1.000e-03 moles of the following reaction have been added:

	                 Relative
	Reactant            moles

	NaCl                 1.00000

	                 Relative
	Element             moles
	Cl                   1.00000
	Na                   1.00000

Kinetics 3.	

	Time step: 3333.33 seconds

	Rate name       Delta Moles Total Moles   Reactant        Coefficient

	Calcite          -2.914e-09   1.000e+00   CaCO3                     1

----------------Fixed-pressure gas phase 3 dissolved completely----------------

-------------------------------Phase assemblage--------------------------------

                                                      Moles in assemblage
Phase               SI  log IAP  log K(T, P)   Initial       Final       Delta

Barite            0.00    -9.75     -9.75    1.000e+01   9.998e+00  -1.781e-03

--------------------------------Solid solutions--------------------------------


Solid solution                Component        Moles  Delta moles   Mole fract

Calcite                                     9.18e-02
                                calcite     9.10e-02    -8.99e-03     9.91e-01
                               siderite     8.13e-04    -1.87e-04     8.85e-03

------------------------------Surface composition------------------------------

Diffuse Double Layer Surface-Complexation Model

Hfo           
	 -9.154e-05  Surface charge, eq
	 -1.472e-02  sigma, C/m²
	 -3.057e-02  psi, V
	  1.170e+00  -F*psi/RT
	  3.222e+00  exp(-F*psi/RT)
	  6.000e+02  specific area, m²/g
	  6.000e+02  m² for   1.000e+00 g


Hfo_s         
	  1.000e-02  moles
	                                   Mole                     Log
	Species               Moles    Fraction    Molality    Molality

	Hfo_sO-           5.432e-03       0.543   5.432e-03      -2.265
	Hfo_sOHCa+2       1.886e-03       0.189   1.886e-03      -2.725
	Hfo_sOH           1.798e-03       0.180   1.798e-03      -2.745
	Hfo_sOHBa+2       6.842e-04       0.068   6.842e-04      -3.165
	Hfo_sOFe+         1.870e-04       0.019   1.870e-04      -3.728
	Hfo_sOH2+         1.363e-05       0.001   1.363e-05      -4.865

-----------------------------Exchange composition------------------------------

X                1.000e+00 mol

	                               Equiv-    Equivalent      Log 
	Species             Moles      alents      Fraction     Gamma

	NaX               9.836e-01   9.836e-01   9.836e-01    -0.078
	CaX2              7.097e-03   1.419e-02   1.419e-02    -0.305
	BaX2              1.096e-03   2.193e-03   2.193e-03    -0.322
	FeX2              9.297e-08   1.859e-07   1.859e-07    -0.297

-----------------------------Solution composition------------------------------

	Elements           Molality       Moles

	Ba                5.251e-07   5.251e-07
	C                 1.582e-02   1.582e-02
	Ca                9.890e-06   9.890e-06
	Cl                2.500e-03   2.500e-03
	Fe                3.175e-09   3.175e-09
	Na                3.196e-02   3.196e-02
	S                 3.137e-03   3.137e-03

----------------------------Description of solution----------------------------

                                       pH  =   9.918      Charge balance
                                       pe  =  -5.931      Adjusted to redox equilibrium
      Specific Conductance (µS/cm,  30°C)  = 3539
                          Density (g/cm³)  =   1.00182
                               Volume (L)  =   1.00026
                        Viscosity (mPa s)  =   0.80391
                        Activity of water  =   0.999
                 Ionic strength (mol/kgw)  =   4.116e-02
                       Mass of water (kg)  =   1.000e+00
                 Total alkalinity (eq/kg)  =   2.301e-02
                       Total CO2 (mol/kg)  =   1.582e-02
                         Temperature (°C)  =  30.00
                           Pressure (atm)  = 100.00
                  Electrical balance (eq)  =   1.905e-04
 Percent error, 100*(Cat-|An|)/(Cat+|An|)  =   0.30
                               Iterations  =  15
                                  Total H  = 1.110210e+02
                                  Total O  = 5.556619e+01

----------------------------Distribution of species----------------------------

                                               Log       Log       Log    mole V
   Species          Molality    Activity  Molality  Activity     Gamma   cm³/mol

   OH-             1.607e-04   1.324e-04    -3.794    -3.878    -0.084     -3.50
   H+              1.401e-10   1.207e-10    -9.853    -9.918    -0.065      0.00
   H2O             5.551e+01   9.991e-01     1.744    -0.000     0.000     18.02
Ba            5.251e-07
   BaCO3           2.578e-07   2.602e-07    -6.589    -6.585     0.004    -10.04
   Ba+2            2.535e-07   1.332e-07    -6.596    -6.876    -0.280    -11.79
   BaHCO3+         1.383e-08   1.150e-08    -7.859    -7.939    -0.080     (0)  
   BaOH+           4.582e-11   3.830e-11   -10.339   -10.417    -0.078     (0)  
C(-4)         9.504e-15
   CH4             9.504e-15   9.595e-15   -14.022   -14.018     0.004     35.98
C(4)          1.582e-02
   HCO3-           8.677e-03   7.284e-03    -2.062    -2.138    -0.076     25.62
   CO3-2           7.030e-03   3.480e-03    -2.153    -2.458    -0.305     -2.59
   NaHCO3          1.012e-04   1.026e-04    -3.995    -3.989     0.006     18.76
   CaCO3           7.309e-06   7.378e-06    -5.136    -5.132     0.004    -13.89
   CO2             1.670e-06   1.680e-06    -5.777    -5.775     0.003     34.91
   BaCO3           2.578e-07   2.602e-07    -6.589    -6.585     0.004    -10.04
   BaHCO3+         1.383e-08   1.150e-08    -7.859    -7.939    -0.080     (0)  
   FeCO3           2.841e-09   2.868e-09    -8.547    -8.542     0.004     (0)  
   FeHCO3+         3.366e-11   2.800e-11   -10.473   -10.553    -0.080     (0)  
   CaHCO3+         2.464e-12   2.078e-12   -11.608   -11.682    -0.074     10.19
   (CO2)2          5.825e-14   5.862e-14   -13.235   -13.232     0.003     68.98
Ca            9.890e-06
   CaCO3           7.309e-06   7.378e-06    -5.136    -5.132     0.004    -13.89
   Ca+2            2.335e-06   1.158e-06    -5.632    -5.936    -0.305    -16.92
   CaSO4           2.448e-07   2.459e-07    -6.611    -6.609     0.002      7.88
   CaOH+           1.921e-09   1.598e-09    -8.717    -8.797    -0.080     (0)  
   CaHCO3+         2.464e-12   2.078e-12   -11.608   -11.682    -0.074     10.19
   CaHSO4+         2.926e-16   2.434e-16   -15.534   -15.614    -0.080     (0)  
Cl            2.500e-03
   Cl-             2.500e-03   2.066e-03    -2.602    -2.685    -0.083     18.40
   FeCl+           1.280e-13   1.065e-13   -12.893   -12.973    -0.080     (0)  
   HCl             7.923e-14   8.250e-14   -13.101   -13.084     0.018     20.68
   FeCl+2          8.170e-31   3.988e-31   -30.088   -30.399    -0.311     (0)  
   FeCl2+          4.053e-33   3.388e-33   -32.392   -32.470    -0.078     (0)  
   FeCl3           7.459e-37   7.530e-37   -36.127   -36.123     0.004     (0)  
Fe(2)         3.149e-09
   FeCO3           2.841e-09   2.868e-09    -8.547    -8.542     0.004     (0)  
   FeOH+           1.687e-10   1.410e-10    -9.773    -9.851    -0.078     (0)  
   Fe+2            7.459e-11   3.768e-11   -10.127   -10.424    -0.297    -20.61
   FeHCO3+         3.366e-11   2.800e-11   -10.473   -10.553    -0.080     (0)  
   Fe(OH)2         1.621e-11   1.637e-11   -10.790   -10.786     0.004     (0)  
   FeSO4           8.452e-12   8.533e-12   -11.073   -11.069     0.004     30.44
   Fe(OH)3-        6.791e-12   5.677e-12   -11.168   -11.246    -0.078     (0)  
   FeCl+           1.280e-13   1.065e-13   -12.893   -12.973    -0.080     (0)  
   FeHSO4+         9.385e-21   7.805e-21   -20.028   -20.108    -0.080     (0)  
   Fe(HS)2         5.807e-26   5.862e-26   -25.236   -25.232     0.004     (0)  
   Fe(HS)3-        1.057e-35   8.788e-36   -34.976   -35.056    -0.080     (0)  
Fe(3)         2.510e-11
   Fe(OH)4-        2.316e-11   1.942e-11   -10.635   -10.712    -0.076     (0)  
   Fe(OH)3         1.947e-12   1.965e-12   -11.711   -11.707     0.004     (0)  
   Fe(OH)2+        1.650e-15   1.384e-15   -14.782   -14.859    -0.076     (0)  
   FeOH+2          7.990e-22   3.900e-22   -21.097   -21.409    -0.311     (0)  
   FeSO4+          1.061e-28   8.866e-29   -27.974   -28.052    -0.078     (0)  
   Fe+3            1.950e-29   5.084e-30   -28.710   -29.294    -0.584     (0)  
   Fe(SO4)2-       3.391e-30   2.820e-30   -29.470   -29.550    -0.080     (0)  
   FeCl+2          8.170e-31   3.988e-31   -30.088   -30.399    -0.311     (0)  
   FeCl2+          4.053e-33   3.388e-33   -32.392   -32.470    -0.078     (0)  
   FeCl3           7.459e-37   7.530e-37   -36.127   -36.123     0.004     (0)  
   FeHSO4+2        6.002e-38   2.872e-38   -37.222   -37.542    -0.320     (0)  
   Fe2(OH)2+4      0.000e+00   0.000e+00   -40.196   -41.476    -1.280     (0)  
   Fe3(OH)4+5      0.000e+00   0.000e+00   -52.211   -54.212    -2.001     (0)  
H(0)          1.332e-11
   H2              6.662e-12   6.728e-12   -11.176   -11.172     0.004     15.38
Na            3.196e-02
   Na+             3.147e-02   2.628e-02    -1.502    -1.580    -0.078     -0.69
   NaSO4-          3.880e-04   3.229e-04    -3.411    -3.491    -0.080     18.18
   NaHCO3          1.012e-04   1.026e-04    -3.995    -3.989     0.006     18.76
   Na2SO4          5.975e-09   6.025e-09    -8.224    -8.220     0.004     45.94
O(0)          0.000e+00
   O2              0.000e+00   0.000e+00   -68.439   -68.435     0.004     30.61
S(-2)         1.542e-12
   HS-             1.537e-12   1.266e-12   -11.813   -11.897    -0.084     20.99
   S-2             3.953e-15   1.930e-15   -14.403   -14.715    -0.311     (0)  
   H2S             1.080e-15   1.090e-15   -14.967   -14.963     0.004     36.27
   Fe(HS)2         5.807e-26   5.862e-26   -25.236   -25.232     0.004     (0)  
   (H2S)2          8.145e-32   8.222e-32   -31.089   -31.085     0.004     34.33
   Fe(HS)3-        1.057e-35   8.788e-36   -34.976   -35.056    -0.080     (0)  
S(6)          3.137e-03
   SO4-2           2.749e-03   1.337e-03    -2.561    -2.874    -0.313     16.32
   NaSO4-          3.880e-04   3.229e-04    -3.411    -3.491    -0.080     18.18
   CaSO4           2.448e-07   2.459e-07    -6.611    -6.609     0.002      7.88
   Na2SO4          5.975e-09   6.025e-09    -8.224    -8.220     0.004     45.94
   HSO4-           1.914e-11   1.592e-11   -10.718   -10.798    -0.080     40.51
   FeSO4           8.452e-12   8.533e-12   -11.073   -11.069     0.004     30.44
   CaHSO4+         2.926e-16   2.434e-16   -15.534   -15.614    -0.080     (0)  
   FeHSO4+         9.385e-21   7.805e-21   -20.028   -20.108    -0.080     (0)  
   FeSO4+          1.061e-28   8.866e-29   -27.974   -28.052    -0.078     (0)  
   Fe(SO4)2-       3.391e-30   2.820e-30   -29.470   -29.550    -0.080     (0)  
   FeHSO4+2        6.002e-38   2.872e-38   -37.222   -37.542    -0.320     (0)  

------------------------------Saturation indices-------------------------------

  Phase               SI** log IAP   log K(303 K, 100 atm)

  Anhydrite        -4.50     -8.81   -4.31  CaSO4
  Aragonite        -0.12     -8.39   -8.28  CaCO3
  Barite            0.00     -9.75   -9.75  BaSO4
  Calcite          -0.00     -8.39   -8.39  CaCO3
  CH4(g)          -11.11    -14.02   -2.91  CH4
  CO2(g)           -4.19     -5.77   -1.58  CO2
  Fe(OH)3(a)       -4.34      0.46    4.80  Fe(OH)3
  FeS(ppt)         -8.49    -12.40   -3.92  FeS
  Goethite          1.66      0.46   -1.20  FeOOH
  Gypsum           -4.31     -8.81   -4.50  CaSO4:2H2O
  H2(g)            -8.04    -11.17   -3.13  H2
  H2O(g)           -1.35     -0.00    1.35  H2O
  H2S(g)          -13.85    -21.82   -7.96  H2S
  Halite           -5.86     -4.27    1.59  NaCl
  Hematite          5.34      0.92   -4.42  Fe2O3
  Mackinawite      -7.79    -12.40   -4.61  FeS
  Melanterite     -10.94    -13.30   -2.36  FeSO4:7H2O
  Mirabilite       -5.74     -6.04   -0.30  Na2SO4:10H2O
  O2(g)           -65.46    -68.44   -2.98  O2
  Pyrite           -7.91    -26.24  -18.34  FeS2
  Siderite         -2.05    -12.88  -10.83  FeCO3
  Sulfur          -11.69     -6.99    4.70  S
  Thenardite       -6.68     -6.03    0.65  Na2SO4
  Witherite        -0.88     -9.33   -8.45  BaCO3

**For a gas, SI = log10(fugacity). Fugacity = pressure * phi / 1 atm.
  For ideal gases, phi = 1.

Reaction step 2.

Using mix 3.	
Using exchange 3.	Exchange assemblage after simulation 3.
Using surface 3.	
Using pure phase assemblage 3.	
Using solid solution assemblage 3.	
Using gas phase 3.	
Using temperature 3.	
Using pressure 3.	
Using reaction 3.	
Using kinetics 3.	

Mixture 3.	

	  5.000e-01 Solution 2	Solution after simulation 14.                          
	  5.000e-01 Solution 3	                                                       

Reaction 3.	

	  1.000e-03 moles of the following reaction have been added:

	                 Relative
	Reactant            moles

	NaCl                 1.00000

	                 Relative
	Element             moles
	Cl                   1.00000
	Na                   1.00000

Kinetics 3.	

	Time step: 6666.67 seconds

	Rate name       Delta Moles Total Moles   Reactant        Coefficient

	Calcite          -5.889e-09   1.000e+00   CaCO3                     1

----------------Fixed-pressure gas phase 3 dissolved completely----------------

-------------------------------Phase assemblage--------------------------------

                                                      Moles in assemblage
Phase               SI  log IAP  log K(T, P)   Initial       Final       Delta

Barite            0.00    -9.67     -9.67    1.000e+01   9.998e+00  -1.868e-03

--------------------------------Solid solutions--------------------------------


Solid solution                Component        Moles  Delta moles   Mole fract

Calcite                                     9.15e-02
                                calcite     9.06e-02    -9.36e-03     9.91e-01
                               siderite     8.18e-04    -1.82e-04     8.94e-03

------------------------------Surface composition------------------------------

Diffuse Double Layer Surface-Complexation Model

Hfo           
	 -8.834e-05  Surface charge, eq
	 -1.421e-02  sigma, C/m²
	 -2.911e-02  psi, V
	  1.114e+00  -F*psi/RT
	  3.048e+00  exp(-F*psi/RT)
	  6.000e+02  specific area, m²/g
	  6.000e+02  m² for   1.000e+00 g


Hfo_s         
	  1.000e-02  moles
	                                   Mole                     Log
	Species               Moles    Fraction    Molality    Molality

	Hfo_sO-           5.428e-03       0.543   5.428e-03      -2.265
	Hfo_sOHCa+2       1.879e-03       0.188   1.879e-03      -2.726
	Hfo_sOH           1.804e-03       0.180   1.804e-03      -2.744
	Hfo_sOHBa+2       6.929e-04       0.069   6.929e-04      -3.159
	Hfo_sOFe+         1.818e-04       0.018   1.818e-04      -3.740
	Hfo_sOH2+         1.373e-05       0.001   1.373e-05      -4.862

-----------------------------Exchange composition------------------------------

X                1.000e+00 mol

	                               Equiv-    Equivalent      Log 
	Species             Moles      alents      Fraction     Gamma

	NaX               9.827e-01   9.827e-01   9.827e-01    -0.079
	CaX2              7.478e-03   1.496e-02   1.496e-02    -0.307
	BaX2              1.175e-03   2.349e-03   2.349e-03    -0.324
	FeX2              9.596e-08   1.919e-07   1.919e-07    -0.299

-----------------------------Solution composition------------------------------

	Elements           Molality       Moles

	Ba                6.314e-07   6.314e-07
	C                 1.619e-02   1.619e-02
	Ca                1.198e-05   1.198e-05
	Cl                2.500e-03   2.500e-03
	Fe                3.605e-09   3.605e-09
	Na                3.288e-02   3.288e-02
	S                 3.224e-03   3.224e-03

----------------------------Description of solution----------------------------

                                       pH  =   9.892      Charge balance
                                       pe  =  -5.928      Adjusted to redox equilibrium
      Specific Conductance (µS/cm,  30°C)  = 3668
                          Density (g/cm³)  =   1.00623
                               Volume (L)  =   0.99593
                        Viscosity (mPa s)  =   0.80433
                        Activity of water  =   0.999
                 Ionic strength (mol/kgw)  =   4.250e-02
                       Mass of water (kg)  =   1.000e+00
                 Total alkalinity (eq/kg)  =   2.377e-02
                       Total CO2 (mol/kg)  =   1.619e-02
                         Temperature (°C)  =  30.00
                           Pressure (atm)  = 200.00
                  Electrical balance (eq)  =   1.873e-04
 Percent error, 100*(Cat-|An|)/(Cat+|An|)  =   0.29
                               Iterations  =  17
                                  Total H  = 1.110210e+02
                                  Total O  = 5.556766e+01

----------------------------Distribution of species----------------------------

                                               Log       Log       Log    mole V
   Species          Molality    Activity  Molality  Activity     Gamma   cm³/mol

   OH-             1.649e-04   1.357e-04    -3.783    -3.868    -0.085     -3.28
   H+              1.489e-10   1.281e-10    -9.827    -9.892    -0.065      0.00
   H2O             5.551e+01   9.991e-01     1.744    -0.000     0.000     17.94
Ba            6.314e-07
   BaCO3           3.147e-07   3.178e-07    -6.502    -6.498     0.004     -9.46
   Ba+2            2.993e-07   1.566e-07    -6.524    -6.805    -0.281    -11.03
   BaHCO3+         1.732e-08   1.439e-08    -7.761    -7.842    -0.081     (0)  
   BaOH+           5.240e-11   4.375e-11   -10.281   -10.359    -0.078     (0)  
C(-4)         1.192e-14
   CH4             1.192e-14   1.203e-14   -13.924   -13.920     0.004     36.09
C(4)          1.619e-02
   HCO3-           8.668e-03   7.267e-03    -2.062    -2.139    -0.077     25.91
   CO3-2           7.404e-03   3.648e-03    -2.131    -2.438    -0.307     -1.75
   NaHCO3          1.061e-04   1.077e-04    -3.974    -3.968     0.006     19.46
   CaCO3           8.914e-06   9.002e-06    -5.050    -5.046     0.004    -13.24
   CO2             1.590e-06   1.601e-06    -5.799    -5.796     0.003     34.80
   BaCO3           3.147e-07   3.178e-07    -6.502    -6.498     0.004     -9.46
   BaHCO3+         1.732e-08   1.439e-08    -7.761    -7.842    -0.081     (0)  
   FeCO3           3.227e-09   3.259e-09    -8.491    -8.487     0.004     (0)  
   FeHCO3+         4.065e-11   3.377e-11   -10.391   -10.472    -0.081     (0)  
   CaHCO3+         2.910e-12   2.451e-12   -11.536   -11.611    -0.075     10.42
   (CO2)2          5.304e-14   5.338e-14   -13.275   -13.273     0.003     68.76
Ca            1.198e-05
   CaCO3           8.914e-06   9.002e-06    -5.050    -5.046     0.004    -13.24
   Ca+2            2.774e-06   1.369e-06    -5.557    -5.864    -0.307    -16.26
   CaSO4           2.883e-07   2.896e-07    -6.540    -6.538     0.002      8.05
   CaOH+           2.162e-09   1.796e-09    -8.665    -8.746    -0.081     (0)  
   CaHCO3+         2.910e-12   2.451e-12   -11.536   -11.611    -0.075     10.42
   CaHSO4+         3.786e-16   3.145e-16   -15.422   -15.502    -0.081     (0)  
Cl            2.500e-03
   Cl-             2.500e-03   2.062e-03    -2.602    -2.686    -0.084     18.45
   FeCl+           1.500e-13   1.246e-13   -12.824   -12.904    -0.081     (0)  
   HCl             8.315e-14   8.668e-14   -13.080   -13.062     0.018     20.67
   FeCl+2          9.676e-31   4.699e-31   -30.014   -30.328    -0.314     (0)  
   FeCl2+          5.143e-33   4.293e-33   -32.289   -32.367    -0.078     (0)  
   FeCl3           1.016e-36   1.026e-36   -35.993   -35.989     0.004     (0)  
Fe(2)         3.576e-09
   FeCO3           3.227e-09   3.259e-09    -8.491    -8.487     0.004     (0)  
   FeOH+           1.860e-10   1.553e-10    -9.731    -9.809    -0.078     (0)  
   Fe+2            8.805e-11   4.428e-11   -10.055   -10.354    -0.299    -19.88
   FeHCO3+         4.065e-11   3.377e-11   -10.391   -10.472    -0.081     (0)  
   Fe(OH)2         1.807e-11   1.824e-11   -10.743   -10.739     0.004     (0)  
   FeSO4           8.927e-12   9.015e-12   -11.049   -11.045     0.004     30.29
   Fe(OH)3-        7.672e-12   6.404e-12   -11.115   -11.194    -0.078     (0)  
   FeCl+           1.500e-13   1.246e-13   -12.824   -12.904    -0.081     (0)  
   FeHSO4+         1.190e-20   9.882e-21   -19.925   -20.005    -0.081     (0)  
   Fe(HS)2         1.126e-25   1.137e-25   -24.948   -24.944     0.004     (0)  
   Fe(HS)3-        2.740e-35   2.276e-35   -34.562   -34.643    -0.081     (0)  
Fe(3)         2.886e-11
   Fe(OH)4-        2.665e-11   2.233e-11   -10.574   -10.651    -0.077     (0)  
   Fe(OH)3         2.210e-12   2.232e-12   -11.656   -11.651     0.004     (0)  
   Fe(OH)2+        1.854e-15   1.553e-15   -14.732   -14.809    -0.077     (0)  
   FeOH+2          8.904e-22   4.324e-22   -21.050   -21.364    -0.314     (0)  
   FeSO4+          1.275e-28   1.064e-28   -27.894   -27.973    -0.078     (0)  
   Fe+3            2.151e-29   5.569e-30   -28.667   -29.254    -0.587     (0)  
   Fe(SO4)2-       4.468e-30   3.711e-30   -29.350   -29.430    -0.081     (0)  
   FeCl+2          9.676e-31   4.699e-31   -30.014   -30.328    -0.314     (0)  
   FeCl2+          5.143e-33   4.293e-33   -32.289   -32.367    -0.078     (0)  
   FeCl3           1.016e-36   1.026e-36   -35.993   -35.989     0.004     (0)  
   FeHSO4+2        7.689e-38   3.660e-38   -37.114   -37.436    -0.322     (0)  
   Fe2(OH)2+4      0.000e+00   0.000e+00   -40.097   -41.387    -1.289     (0)  
   Fe3(OH)4+5      0.000e+00   0.000e+00   -52.058   -54.072    -2.015     (0)  
H(0)          1.392e-11
   H2              6.959e-12   7.031e-12   -11.157   -11.153     0.004     15.42
Na            3.288e-02
   Na+             3.236e-02   2.700e-02    -1.490    -1.569    -0.079     -0.39
   NaSO4-          4.050e-04   3.366e-04    -3.393    -3.473    -0.080     18.62
   NaHCO3          1.061e-04   1.077e-04    -3.974    -3.968     0.006     19.46
   Na2SO4          5.728e-09   5.778e-09    -8.242    -8.238     0.004     46.20
O(0)          0.000e+00
   O2              0.000e+00   0.000e+00   -68.522   -68.518     0.004     30.45
S(-2)         1.895e-12
   HS-             1.889e-12   1.553e-12   -11.724   -11.809    -0.085     21.02
   S-2             4.998e-15   2.427e-15   -14.301   -14.615    -0.314     (0)  
   H2S             1.334e-15   1.347e-15   -14.875   -14.871     0.004     35.19
   Fe(HS)2         1.126e-25   1.137e-25   -24.948   -24.944     0.004     (0)  
   (H2S)2          1.378e-31   1.391e-31   -30.861   -30.857     0.004     38.52
   Fe(HS)3-        2.740e-35   2.276e-35   -34.562   -34.643    -0.081     (0)  
S(6)          3.224e-03
   SO4-2           2.819e-03   1.363e-03    -2.550    -2.865    -0.315     17.10
   NaSO4-          4.050e-04   3.366e-04    -3.393    -3.473    -0.080     18.62
   CaSO4           2.883e-07   2.896e-07    -6.540    -6.538     0.002      8.05
   Na2SO4          5.728e-09   5.778e-09    -8.242    -8.238     0.004     46.20
   HSO4-           1.898e-11   1.577e-11   -10.722   -10.802    -0.081     40.30
   FeSO4           8.927e-12   9.015e-12   -11.049   -11.045     0.004     30.29
   CaHSO4+         3.786e-16   3.145e-16   -15.422   -15.502    -0.081     (0)  
   FeHSO4+         1.190e-20   9.882e-21   -19.925   -20.005    -0.081     (0)  
   FeSO4+          1.275e-28   1.064e-28   -27.894   -27.973    -0.078     (0)  
   Fe(SO4)2-       4.468e-30   3.711e-30   -29.350   -29.430    -0.081     (0)  
   FeHSO4+2        7.689e-38   3.660e-38   -37.114   -37.436    -0.322     (0)  

------------------------------Saturation indices-------------------------------

  Phase               SI** log IAP   log K(303 K, 200 atm)

  Anhydrite        -4.49     -8.73   -4.24  CaSO4
  Aragonite        -0.11     -8.30   -8.19  CaCO3
  Barite            0.00     -9.67   -9.67  BaSO4
  Calcite          -0.00     -8.30   -8.30  CaCO3
  CH4(g)          -10.95    -13.92   -2.97  CH4
  CO2(g)           -4.15     -5.80   -1.65  CO2
  Fe(OH)3(a)       -4.28      0.42    4.70  Fe(OH)3
  FeS(ppt)         -8.35    -12.27   -3.92  FeS
  Goethite          1.65      0.42   -1.23  FeOOH
  Gypsum           -4.29     -8.73   -4.44  CaSO4:2H2O
  H2(g)            -7.99    -11.15   -3.16  H2
  H2O(g)           -1.31     -0.00    1.31  H2O
  H2S(g)          -13.70    -21.70   -8.00  H2S
  Halite           -5.86     -4.25    1.61  NaCl
  Hematite          5.31      0.84   -4.46  Fe2O3
  Mackinawite      -7.69    -12.27   -4.58  FeS
  Melanterite     -10.64    -13.22   -2.58  FeSO4:7H2O
  Mirabilite       -5.74     -6.01   -0.27  Na2SO4:10H2O
  O2(g)           -65.49    -68.52   -3.03  O2
  Pyrite           -7.71    -26.04  -18.34  FeS2
  Siderite         -2.05    -12.79  -10.74  FeCO3
  Sulfur          -11.59     -6.94    4.64  S
  Thenardite       -6.71     -6.00    0.71  Na2SO4
  Witherite        -0.89     -9.24   -8.35  BaCO3

**For a gas, SI = log10(fugacity). Fugacity = pressure * phi / 1 atm.
  For ideal gases, phi = 1.

Reaction step 3.

Using mix 3.	
Using exchange 3.	Exchange assemblage after simulation 3.
Using surface 3.	
Using pure phase assemblage 3.	
Using solid solution assemblage 3.	
Using gas phase 3.	
Using temperature 3.	
Using pressure 3.	
Using reaction 3.	
Using kinetics 3.	

Mixture 3.	

	  5.000e-01 Solution 2	Solution after simulation 14.                          
	  5.000e-01 Solution 3	                                                       

Reaction 3.	

	  1.000e-03 moles of the following reaction have been added:

	                 Relative
	Reactant            moles

	NaCl                 1.00000

	                 Relative
	Element             moles
	Cl                   1.00000
	Na                   1.00000

Kinetics 3.	

	Time step: 10000 seconds

	Rate name       Delta Moles Total Moles   Reactant        Coefficient

	Calcite          -8.923e-09   1.000e+00   CaCO3                     1

----------------Fixed-pressure gas phase 3 dissolved completely----------------

-------------------------------Phase assemblage--------------------------------

                                                      Moles in assemblage
Phase               SI  log IAP  log K(T, P)   Initial       Final       Delta

Barite           -0.00    -9.60     -9.60    1.000e+01   9.998e+00  -1.953e-03

--------------------------------Solid solutions--------------------------------


Solid solution                Component        Moles  Delta moles   Mole fract

Calcite                                     9.11e-02
                                calcite     9.03e-02    -9.73e-03     9.91e-01
                               siderite     8.23e-04    -1.77e-04     9.04e-03

------------------------------Surface composition------------------------------

Diffuse Double Layer Surface-Complexation Model

Hfo           
	 -8.507e-05  Surface charge, eq
	 -1.368e-02  sigma, C/m²
	 -2.768e-02  psi, V
	  1.060e+00  -F*psi/RT
	  2.886e+00  exp(-F*psi/RT)
	  6.000e+02  specific area, m²/g
	  6.000e+02  m² for   1.000e+00 g


Hfo_s         
	  1.000e-02  moles
	                                   Mole                     Log
	Species               Moles    Fraction    Molality    Molality

	Hfo_sO-           5.424e-03       0.542   5.424e-03      -2.266
	Hfo_sOHCa+2       1.874e-03       0.187   1.874e-03      -2.727
	Hfo_sOH           1.811e-03       0.181   1.811e-03      -2.742
	Hfo_sOHBa+2       7.008e-04       0.070   7.008e-04      -3.154
	Hfo_sOFe+         1.768e-04       0.018   1.768e-04      -3.753
	Hfo_sOH2+         1.385e-05       0.001   1.385e-05      -4.859

-----------------------------Exchange composition------------------------------

X                1.000e+00 mol

	                               Equiv-    Equivalent      Log 
	Species             Moles      alents      Fraction     Gamma

	NaX               9.818e-01   9.818e-01   9.818e-01    -0.079
	CaX2              7.848e-03   1.570e-02   1.570e-02    -0.309
	BaX2              1.252e-03   2.503e-03   2.503e-03    -0.326
	FeX2              9.863e-08   1.973e-07   1.973e-07    -0.300

-----------------------------Solution composition------------------------------

	Elements           Molality       Moles

	Ba                7.535e-07   7.535e-07
	C                 1.655e-02   1.655e-02
	Ca                1.443e-05   1.443e-05
	Cl                2.500e-03   2.500e-03
	Fe                4.092e-09   4.092e-09
	Na                3.377e-02   3.377e-02
	S                 3.309e-03   3.309e-03

----------------------------Description of solution----------------------------

                                       pH  =   9.867      Charge balance
                                       pe  =  -5.934      Adjusted to redox equilibrium
      Specific Conductance (µS/cm,  30°C)  = 3792
                          Density (g/cm³)  =   1.01056
                               Volume (L)  =   0.99171
                        Viscosity (mPa s)  =   0.80500
                        Activity of water  =   0.999
                 Ionic strength (mol/kgw)  =   4.381e-02
                       Mass of water (kg)  =   1.000e+00
                 Total alkalinity (eq/kg)  =   2.450e-02
                       Total CO2 (mol/kg)  =   1.655e-02
                         Temperature (°C)  =  30.00
                           Pressure (atm)  = 300.00
                  Electrical balance (eq)  =   1.841e-04
 Percent error, 100*(Cat-|An|)/(Cat+|An|)  =   0.28
                               Iterations  =  15
                                  Total H  = 1.110210e+02
                                  Total O  = 5.556908e+01

----------------------------Distribution of species----------------------------

                                               Log       Log       Log    mole V
   Species          Molality    Activity  Molality  Activity     Gamma   cm³/mol

   OH-             1.690e-04   1.388e-04    -3.772    -3.858    -0.086     -3.06
   H+              1.580e-10   1.359e-10    -9.801    -9.867    -0.066      0.00
   H2O             5.551e+01   9.991e-01     1.744    -0.000     0.000     17.86
Ba            7.535e-07
   BaCO3           3.820e-07   3.859e-07    -6.418    -6.414     0.004     -8.92
   Ba+2            3.498e-07   1.824e-07    -6.456    -6.739    -0.283    -10.32
   BaHCO3+         2.164e-08   1.796e-08    -7.665    -7.746    -0.081     (0)  
   BaOH+           5.967e-11   4.975e-11   -10.224   -10.303    -0.079     (0)  
C(-4)         1.744e-14
   CH4             1.744e-14   1.762e-14   -13.758   -13.754     0.004     36.19
C(4)          1.655e-02
   HCO3-           8.658e-03   7.251e-03    -2.063    -2.140    -0.077     26.18
   CO3-2           7.769e-03   3.810e-03    -2.110    -2.419    -0.309     -0.96
   NaHCO3          1.111e-04   1.128e-04    -3.954    -3.948     0.007     20.11
   CaCO3           1.082e-05   1.093e-05    -4.966    -4.961     0.004    -12.64
   CO2             1.519e-06   1.529e-06    -5.818    -5.815     0.003     34.69
   BaCO3           3.820e-07   3.859e-07    -6.418    -6.414     0.004     -8.92
   BaHCO3+         2.164e-08   1.796e-08    -7.665    -7.746    -0.081     (0)  
   FeCO3           3.665e-09   3.702e-09    -8.436    -8.432     0.004     (0)  
   FeHCO3+         4.905e-11   4.070e-11   -10.309   -10.390    -0.081     (0)  
   CaHCO3+         3.429e-12   2.885e-12   -11.465   -11.540    -0.075     10.63
   (CO2)2          4.858e-14   4.891e-14   -13.314   -13.311     0.003     68.55
Ca            1.443e-05
   CaCO3           1.082e-05   1.093e-05    -4.966    -4.961     0.004    -12.64
   Ca+2            3.270e-06   1.607e-06    -5.486    -5.794    -0.309    -15.64
   CaSO4           3.397e-07   3.412e-07    -6.469    -6.467     0.002      8.20
   CaOH+           2.426e-09   2.013e-09    -8.615    -8.696    -0.081     (0)  
   CaHCO3+         3.429e-12   2.885e-12   -11.465   -11.540    -0.075     10.63
   CaHSO4+         4.904e-16   4.069e-16   -15.309   -15.391    -0.081     (0)  
Cl            2.500e-03
   Cl-             2.500e-03   2.060e-03    -2.602    -2.686    -0.084     18.50
   FeCl+           1.754e-13   1.455e-13   -12.756   -12.837    -0.081     (0)  
   HCl             8.725e-14   9.108e-14   -13.059   -13.041     0.019     20.67
   FeCl+2          1.120e-30   5.416e-31   -29.951   -30.266    -0.316     (0)  
   FeCl2+          6.386e-33   5.325e-33   -32.195   -32.274    -0.079     (0)  
   FeCl3           1.356e-36   1.370e-36   -35.868   -35.863     0.004     (0)  
Fe(2)         4.060e-09
   FeCO3           3.665e-09   3.702e-09    -8.436    -8.432     0.004     (0)  
[...]
   S-2             1.131e-15   5.427e-16   -14.946   -15.265    -0.319     (0)  
   H2S             5.237e-16   5.291e-16   -15.281   -15.276     0.004     35.19
   Fe(HS)2         1.076e-26   1.087e-26   -25.968   -25.964     0.004     (0)  
   (H2S)2          2.126e-32   2.148e-32   -31.672   -31.668     0.004     38.52
   Fe(HS)3-        7.786e-37   6.447e-37   -36.109   -36.191    -0.082     (0)  
S(6)          3.334e-03
   SO4-2           2.894e-03   1.383e-03    -2.538    -2.859    -0.321     17.11
   NaSO4-          4.393e-04   3.639e-04    -3.357    -3.439    -0.082     18.65
   CaSO4           3.095e-07   3.109e-07    -6.509    -6.507     0.002      8.05
   Na2SO4          6.602e-09   6.662e-09    -8.180    -8.176     0.004     46.20
   HSO4-           2.560e-11   2.120e-11   -10.592   -10.674    -0.082     40.30
   FeSO4           9.845e-12   9.946e-12   -11.007   -11.002     0.004     30.29
   CaHSO4+         5.406e-16   4.476e-16   -15.267   -15.349    -0.082     (0)  
   FeHSO4+         1.745e-20   1.445e-20   -19.758   -19.840    -0.082     (0)  
   FeSO4+          2.260e-28   1.881e-28   -27.646   -27.726    -0.080     (0)  
   Fe(SO4)2-       8.031e-30   6.650e-30   -29.095   -29.177    -0.082     (0)  
   FeHSO4+2        1.823e-37   8.572e-38   -36.739   -37.067    -0.328     (0)  

------------------------------Saturation indices-------------------------------

  Phase               SI** log IAP   log K(303 K, 200 atm)

  Anhydrite        -4.46     -8.70   -4.24  CaSO4
  Aragonite        -0.11     -8.30   -8.19  CaCO3
  Barite            0.00     -9.67   -9.67  BaSO4
  Calcite          -0.00     -8.30   -8.30  CaCO3
  CH4(g)          -11.39    -14.36   -2.97  CH4
  CO2(g)           -3.93     -5.58   -1.65  CO2
  Fe(OH)3(a)       -4.41      0.30    4.70  Fe(OH)3
  FeS(ppt)         -8.97    -12.88   -3.92  FeS
  Goethite          1.52      0.30   -1.23  FeOOH
  Gypsum           -4.26     -8.70   -4.44  CaSO4:2H2O
  H2(g)            -8.16    -11.32   -3.16  H2
  H2O(g)           -1.31     -0.00    1.31  H2O
  H2S(g)          -14.11    -22.11   -8.00  H2S
  Halite           -5.75     -4.15    1.61  NaCl
  Hematite          5.05      0.59   -4.46  Fe2O3
  Mackinawite      -8.30    -12.88   -4.58  FeS
  Melanterite     -10.60    -13.18   -2.58  FeSO4:7H2O
  Mirabilite       -5.68     -5.95   -0.27  Na2SO4:10H2O
  O2(g)           -65.16    -68.19   -3.03  O2
  Pyrite           -8.56    -26.90  -18.34  FeS2
  Siderite         -2.04    -12.78  -10.74  FeCO3
  Sulfur          -11.83     -7.18    4.64  S
  Thenardite       -6.65     -5.94    0.71  Na2SO4
  Witherite        -0.92     -9.27   -8.35  BaCO3

**For a gas, SI = log10(fugacity). Fugacity = pressure * phi / 1 atm.
  For ideal gases, phi = 1.

Reaction step 3.

Using mix 1.	
Using exchange 1.	Exchange assemblage after simulation 3.
Using surface 1.	
Using pure phase assemblage 1.	
Using solid solution assemblage 1.	
Using gas phase 1.	
Using temperature 1.	
Using pressure 1.	
Using reaction 1.	
Using kinetics 1.	

Mixture 1.	

	  5.000e-01 Solution 1	                                                       

Reaction 1.	

	  1.000e-03 moles of the following reaction have been added:

	                 Relative
	Reactant            moles

	NaCl                 1.00000

	                 Relative
	Element             moles
	Cl                   1.00000
	Na                   1.00000

Kinetics 1.	

	Time step: 1 seconds

	Rate name       Delta Moles Total Moles   Reactant        Coefficient

	Calcite          -9.143e-13   1.000e+00   CaCO3                     1

----------------Fixed-pressure gas phase 1 dissolved completely----------------

-------------------------------Phase assemblage--------------------------------

                                                      Moles in assemblage
Phase               SI  log IAP  log K(T, P)   Initial       Final       Delta

Barite            0.00    -9.60     -9.60    1.000e+01   9.998e+00  -1.728e-03

--------------------------------Solid solutions--------------------------------


Solid solution                Component        Moles  Delta moles   Mole fract

Calcite                                     9.17e-02
                                calcite     9.09e-02    -9.11e-03     9.91e-01
                               siderite     8.49e-04    -1.51e-04     9.26e-03

------------------------------Surface composition------------------------------

Diffuse Double Layer Surface-Complexation Model

Hfo           
	 -7.849e-05  Surface charge, eq
	 -1.262e-02  sigma, C/m²
	 -2.511e-02  psi, V
	  9.611e-01  -F*psi/RT
	  2.615e+00  exp(-F*psi/RT)
	  6.000e+02  specific area, m²/g
	  6.000e+02  m² for   1.000e+00 g


Hfo_s         
	  1.000e-02  moles
	                                   Mole                     Log
	Species               Moles    Fraction    Molality    Molality

	Hfo_sO-           5.248e-03       0.525   1.050e-02      -1.979
	Hfo_sOH           2.082e-03       0.208   4.164e-03      -2.380
	Hfo_sOHCa+2       1.853e-03       0.185   3.706e-03      -2.431
	Hfo_sOHBa+2       6.471e-04       0.065   1.294e-03      -2.888
	Hfo_sOFe+         1.507e-04       0.015   3.014e-04      -3.521
	Hfo_sOH2+         1.892e-05       0.002   3.784e-05      -4.422

-----------------------------Exchange composition------------------------------

X                1.000e+00 mol

	                               Equiv-    Equivalent      Log 
	Species             Moles      alents      Fraction     Gamma

	NaX               9.833e-01   9.833e-01   9.833e-01    -0.081
	CaX2              7.245e-03   1.449e-02   1.449e-02    -0.314
	BaX2              1.080e-03   2.161e-03   2.161e-03    -0.332
	FeX2              9.324e-08   1.865e-07   1.865e-07    -0.306

-----------------------------Solution composition------------------------------

	Elements           Molality       Moles

	Ba                7.288e-07   3.644e-07
	C                 1.854e-02   9.270e-03
	Ca                1.465e-05   7.325e-06
	Cl                3.000e-03   1.500e-03
	Fe                4.144e-09   2.072e-09
	Na                3.630e-02   1.815e-02
	S                 3.456e-03   1.728e-03

----------------------------Description of solution----------------------------

                                       pH  =   9.749      Charge balance
                                       pe  =  -5.732      Adjusted to redox equilibrium
      Specific Conductance (µS/cm,  30°C)  = 4034
                          Density (g/cm³)  =   1.01070
                               Volume (L)  =   0.49589
                        Viscosity (mPa s)  =   0.80530
                        Activity of water  =   0.999
                 Ionic strength (mol/kgw)  =   4.608e-02
                       Mass of water (kg)  =   5.000e-01
                 Total alkalinity (eq/kg)  =   2.619e-02
                       Total CO2 (mol/kg)  =   1.854e-02
                         Temperature (°C)  =  30.00
                           Pressure (atm)  = 300.00
                  Electrical balance (eq)  =   1.163e-04
 Percent error, 100*(Cat-|An|)/(Cat+|An|)  =   0.33
                               Iterations  =  24
                                  Total H  = 5.551163e+01
                                  Total O  = 2.778782e+01

----------------------------Distribution of species----------------------------

                                               Log       Log       Log    mole V
   Species          Molality    Activity  Molality  Activity     Gamma   cm³/mol

   OH-             1.293e-04   1.058e-04    -3.888    -3.976    -0.087     -3.05
   H+              2.078e-10   1.783e-10    -9.682    -9.749    -0.067      0.00
   H2O             5.551e+01   9.990e-01     1.744    -0.000     0.000     17.86
Ba            7.288e-07
   BaCO3           3.564e-07   3.602e-07    -6.448    -6.443     0.005     -8.92
   Ba+2            3.458e-07   1.784e-07    -6.461    -6.749    -0.287    -10.30
   BaHCO3+         2.659e-08   2.198e-08    -7.575    -7.658    -0.083     (0)  
   BaOH+           4.465e-11   3.710e-11   -10.350   -10.431    -0.080     (0)  
C(-4)         6.090e-15
   CH4             6.090e-15   6.155e-15   -14.215   -14.211     0.005     36.19
C(4)          1.854e-02
   HCO3-           1.087e-02   9.073e-03    -1.964    -2.042    -0.078     26.20
   CO3-2           7.510e-03   3.635e-03    -2.124    -2.440    -0.315     -0.94
   NaHCO3          1.487e-04   1.511e-04    -3.828    -3.821     0.007     20.11
   CaCO3           1.081e-05   1.093e-05    -4.966    -4.961     0.005    -12.64
   CO2             2.493e-06   2.511e-06    -5.603    -5.600     0.003     34.69
   BaCO3           3.564e-07   3.602e-07    -6.448    -6.443     0.005     -8.92
   BaHCO3+         2.659e-08   2.198e-08    -7.575    -7.658    -0.083     (0)  
   FeCO3           3.752e-09   3.792e-09    -8.426    -8.421     0.005     (0)  
   FeHCO3+         6.613e-11   5.468e-11   -10.180   -10.262    -0.083     (0)  
   CaHCO3+         4.510e-12   3.782e-12   -11.346   -11.422    -0.076     10.63
   (CO2)2          1.309e-13   1.318e-13   -12.883   -12.880     0.003     68.55
Ca            1.465e-05
   CaCO3           1.081e-05   1.093e-05    -4.966    -4.961     0.005    -12.64
   Ca+2            3.470e-06   1.683e-06    -5.460    -5.774    -0.314    -15.63
   CaSO4           3.638e-07   3.655e-07    -6.439    -6.437     0.002      8.20
   CaOH+           1.945e-09   1.608e-09    -8.711    -8.794    -0.083     (0)  
   CaHCO3+         4.510e-12   3.782e-12   -11.346   -11.422    -0.076     10.63
   CaHSO4+         6.913e-16   5.716e-16   -15.160   -15.243    -0.083     (0)  
Cl            3.000e-03
   Cl-             3.000e-03   2.462e-03    -2.523    -2.609    -0.086     18.50
   FeCl+           2.258e-13   1.867e-13   -12.646   -12.729    -0.083     (0)  
   HCl             1.365e-13   1.428e-13   -12.865   -12.845     0.020     20.67
   FeCl+2          2.320e-30   1.106e-30   -29.635   -29.956    -0.322     (0)  
   FeCl2+          1.564e-32   1.300e-32   -31.806   -31.886    -0.080     (0)  
   FeCl3           3.955e-36   3.997e-36   -35.403   -35.398     0.005     (0)  
Fe(2)         4.125e-09
   FeCO3           3.752e-09   3.792e-09    -8.426    -8.421     0.005     (0)  
   FeOH+           1.679e-10   1.395e-10    -9.775    -9.855    -0.080     (0)  
   Fe+2            1.120e-10   5.539e-11    -9.951   -10.257    -0.306    -19.19
   FeHCO3+         6.613e-11   5.468e-11   -10.180   -10.262    -0.083     (0)  
   Fe(OH)2         1.252e-11   1.265e-11   -10.902   -10.898     0.005     (0)  
   FeSO4           1.037e-11   1.048e-11   -10.984   -10.980     0.005     30.16
   Fe(OH)3-        4.123e-12   3.426e-12   -11.385   -11.465    -0.080     (0)  
   FeCl+           2.258e-13   1.867e-13   -12.646   -12.729    -0.083     (0)  
   FeHSO4+         2.180e-20   1.802e-20   -19.662   -19.744    -0.083     (0)  
   Fe(HS)2         2.610e-26   2.638e-26   -25.583   -25.579     0.005     (0)  
   Fe(HS)3-        2.849e-36   2.356e-36   -35.545   -35.628    -0.083     (0)  
Fe(3)         1.922e-11
   Fe(OH)4-        1.736e-11   1.448e-11   -10.760   -10.839    -0.079     (0)  
   Fe(OH)3         1.856e-12   1.876e-12   -11.731   -11.727     0.005     (0)  
   Fe(OH)2+        2.028e-15   1.692e-15   -14.693   -14.772    -0.079     (0)  
   FeOH+2          1.281e-21   6.104e-22   -20.893   -21.214    -0.322     (0)  
   FeSO4+          2.638e-28   2.192e-28   -27.579   -27.659    -0.080     (0)  
   Fe+3            4.046e-29   1.019e-29   -28.393   -28.992    -0.599     (0)  
   Fe(SO4)2-       1.040e-29   8.600e-30   -28.983   -29.066    -0.083     (0)  
   FeCl+2          2.320e-30   1.106e-30   -29.635   -29.956    -0.322     (0)  
   FeCl2+          1.564e-32   1.300e-32   -31.806   -31.886    -0.080     (0)  
   FeCl3           3.955e-36   3.997e-36   -35.403   -35.398     0.005     (0)  
   FeHSO4+2        2.244e-37   1.049e-37   -36.649   -36.979    -0.330     (0)  
   Fe2(OH)2+4      1.717e-40   0.000e+00   -39.765   -41.087    -1.322     (0)  
   Fe3(OH)4+5      0.000e+00   0.000e+00   -51.671   -53.736    -2.065     (0)  
H(0)          1.025e-11
   H2              5.124e-12   5.182e-12   -11.290   -11.286     0.005     15.46
Na            3.630e-02
   Na+             3.569e-02   2.964e-02    -1.447    -1.528    -0.081     -0.11
   NaSO4-          4.647e-04   3.845e-04    -3.333    -3.415    -0.082     19.07
   NaHCO3          1.487e-04   1.511e-04    -3.828    -3.821     0.007     20.11
   Na2SO4          6.451e-09   6.512e-09    -8.190    -8.186     0.004     46.44
O(0)          0.000e+00
   O2              0.000e+00   0.000e+00   -68.302   -68.298     0.005     30.31
S(-2)         7.809e-13
   HS-             7.785e-13   6.368e-13   -12.109   -12.196    -0.087     21.06
   S-2             1.633e-15   7.783e-16   -14.787   -15.109    -0.322     (0)  
   H2S             7.271e-16   7.348e-16   -15.138   -15.134     0.005     34.18
   Fe(HS)2         2.610e-26   2.638e-26   -25.583   -25.579     0.005     (0)  
   (H2S)2          4.339e-32   4.385e-32   -31.363   -31.358     0.005     42.42
   Fe(HS)3-        2.849e-36   2.356e-36   -35.545   -35.628    -0.083     (0)  
S(6)          3.456e-03
   SO4-2           2.991e-03   1.420e-03    -2.524    -2.848    -0.324     17.85
   NaSO4-          4.647e-04   3.845e-04    -3.333    -3.415    -0.082     19.07
   CaSO4           3.638e-07   3.655e-07    -6.439    -6.437     0.002      8.20
   Na2SO4          6.451e-09   6.512e-09    -8.190    -8.186     0.004     46.44
   HSO4-           2.545e-11   2.104e-11   -10.594   -10.677    -0.083     40.11
   FeSO4           1.037e-11   1.048e-11   -10.984   -10.980     0.005     30.16
   CaHSO4+         6.913e-16   5.716e-16   -15.160   -15.243    -0.083     (0)  
   FeHSO4+         2.180e-20   1.802e-20   -19.662   -19.744    -0.083     (0)  
   FeSO4+          2.638e-28   2.192e-28   -27.579   -27.659    -0.080     (0)  
   Fe(SO4)2-       1.040e-29   8.600e-30   -28.983   -29.066    -0.083     (0)  
   FeHSO4+2        2.244e-37   1.049e-37   -36.649   -36.979    -0.330     (0)  

------------------------------Saturation indices-------------------------------

  Phase               SI** log IAP   log K(303 K, 300 atm)

  Anhydrite        -4.46     -8.62   -4.17  CaSO4
  Aragonite        -0.11     -8.21   -8.11  CaCO3
  Barite            0.00     -9.60   -9.60  BaSO4
  Calcite          -0.00     -8.21   -8.21  CaCO3
  CH4(g)          -11.18    -14.21   -3.03  CH4
  CO2(g)           -3.89     -5.60   -1.71  CO2
  Fe(OH)3(a)       -4.36      0.25    4.61  Fe(OH)3
  FeS(ppt)         -8.78    -12.70   -3.92  FeS
  Goethite          1.51      0.25   -1.25  FeOOH
  Gypsum           -4.24     -8.62   -4.38  CaSO4:2H2O
  H2(g)            -8.10    -11.29   -3.19  H2
  H2O(g)           -1.28     -0.00    1.28  H2O
  H2S(g)          -13.91    -21.94   -8.04  H2S
  Halite           -5.76     -4.14    1.62  NaCl
  Hematite          5.01      0.51   -4.50  Fe2O3
  Mackinawite      -8.15    -12.70   -4.55  FeS
  Melanterite     -10.31    -13.11   -2.80  FeSO4:7H2O
  Mirabilite       -5.67     -5.91   -0.23  Na2SO4:10H2O
  O2(g)           -65.21    -68.30   -3.08  O2
  Pyrite           -8.28    -26.61  -18.34  FeS2
  Siderite         -2.03    -12.70  -10.66  FeCO3
  Sulfur          -11.69     -7.10    4.59  S
  Thenardite       -6.67     -5.90    0.77  Na2SO4
  Witherite        -0.93     -9.19   -8.26  BaCO3

**For a gas, SI = log10(fugacity). Fugacity = pressure * phi / 1 atm.
  For ideal gases, phi = 1.

------------------
End of simulation.
------------------

-------------------------------------
Reading input data for simulation 19.
-------------------------------------

	DELETE
		-solution  -1--2	 	
		-equilibrium_phases	-1
			-2
		-exchange	-2--1
		-surface	-1
			-2
		-solid_solution
			-2
			-1
		-gas_phase	
			-2--1
		-kinetics	
				-1--2 -5
		-mix 		-5--1			
		-reaction	-5--1
		-temperature	-5--1
		-pressure	-5--1
	END
------------------
End of simulation.
------------------

-------------------------------------
Reading input data for simulation 20.
-------------------------------------

	DUMP
		-all
	END
------------------
End of simulation.
------------------

-------------------------------------
Reading input data for simulation 21.
-------------------------------------

	SOLUTION_MODIFY       1 New soln description
	  -totals
	    Cl   0.0020000000000003
	    H(0)   1.4155655514601e-025
	    Na   0.0020000000000003
	EQUILIBRIUM_PHASES_MODIFY       1 New pp description
	  -component               Barite
	    -moles                 20
	    -dissolve_only         1
	  -component               Calcite
	    -moles                 20
	    -dissolve_only         1
	EXCHANGE_MODIFY       1 New ex description
	  -pitzer_exchange_gammas 1
	  -component              X
	    -totals
	      Na   3.0000000058717
	      X   3.0000000058717
	  -component               Y
	    -la                    2.0000000302372
	    -charge_balance        0
	    -phase_proportion              0
	    -formula_z                     0
	    -totals
	      Na   2.0000000058717
	      X   2.0000000058717
	SURFACE_MODIFY      1 New surface def
	  -type 2
	  -dl_type 0
	  -sites_units 0
	  -only_counter_ions 0
	  -thickness 1e-008
	  -debye_lengths 0
	  -DDL_viscosity 1
	  -DDL_limit 0.8
	  -transport 0
	  -component	Hfo_s
	      -formula_z             0
	      -moles                 0
	      -la                    -0.11486188676541
	      -charge_balance        3.7853465372651e-005
	      -phase_proportion      0
	      -Dw                    0
	      -totals
	        H   0.02003785346547
	        Hfo_s   0.020000000000097
	        O   0.020000000000097
	  -charge_component 	Hfo
	      -specific_area         700
	      -grams                 1
	      -charge_balance        5.7853465372651e-005
	      -mass_water            0
	      -la_psi                0.55146269389617
	      -capacitance0          3
	      -capacitance1          5
	      -diffuse_layer_totals 
	SOLID_SOLUTIONS_MODIFY       1 New ss def
	  -solid_solution            Calcite
	      -a0                    0
	      -a1                    0
	      -ag0                   0
	      -ag1                   0
	      -miscibility           0
	      -xb1                   -6.2774385622042e+066
	      -xb2                   -6.2774385622042e+066
	      -component	calcite      
	        -moles   	0.2
	      -component	rhodochrosite 
	        -moles          0.2  
	  -solid_solution	Barite
	      -a0                    0
	      -a1                    0
	      -ag0                   0
	      -ag1                   0
	      -miscibility           0
	      -xb1                   -6.2774385622042e+066
	      -xb2                   -6.2774385622042e+066
	      -component 	Barite
	        -moles          0.2
	      -component	Gypsum
	        -moles          0.2      
	GAS_PHASE_MODIFY      1 New gas_phase def
	  -type               0
	  -total_p            1
	  -volume             1
	  -component 	CO2(g)
	  	-moles		2.4305508698401e-005
	  -component	N2(g)	
	       -moles		1e-5
	KINETICS_MODIFY       1 New kinetics def
	  -bad_step_max      200
	  -use_cvode         1
	  -cvode_steps       200
	  -cvode_order       5
	  -component           Calcite
	    -tol                   1e-009
	    -m                     0.9999999999991
	    -m0                    1
	    -moles                 8.9805940461929e-010
	    -namecoef
	      CaCO3   1
	      MgCO3   2
	    -d_params
	      1 1 1 1 
	  -totals         
	    C   8.9801193858101e-013
	    Ca   8.9801193858101e-013
	    O   2.694035815743e-012
	DUMP
		-solution 1
		-equilibrium 1
		-exchange 1
		-surface 1
		-solid_solution 1
		-gas_phase 1
		-kinetics  1
	END
------------------
End of simulation.
------------------

-------------------------------------
Reading input data for simulation 22.
-------------------------------------

