WARNING: Database file from DATABASE keyword is used; command line argument ignored.
   Input file: PR_error_incremental
  Output file: PR_error_incremental.out
Database file: ../database/phreeqc.dat

------------------
Reading data base.
------------------

	SOLUTION_MASTER_SPECIES
	SOLUTION_SPECIES
	PHASES
	GAS_BINARY_PARAMETERS
	EXCHANGE_MASTER_SPECIES
	EXCHANGE_SPECIES
	SURFACE_MASTER_SPECIES
	SURFACE_SPECIES
	MEAN_GAMMAS
	RATES
	END
------------------------------------
Reading input data for simulation 1.
------------------------------------

	DATABASE ../database/phreeqc.dat
	SELECTED_OUTPUT 101
	    file                 PR_error_incremental_101.sel
	USER_PUNCH 101
	    headings PR_P_CO2 PR_PHI_CO2 PR_P_H2 PR_PHI_H2
	    start
	10 PUNCH STR_F$(PR_P("CO2(g)"), 20, 12)   
	20 PUNCH STR_F$(PR_PHI("CO2(g)"), 20, 12)
	30 PUNCH STR_F$(PR_P("H2(g)"), 20, 12)
	40 PUNCH STR_F$(PR_PHI("H2(g)"), 20, 12)
	    end
	SOLUTION 1
	    temp      25
	    pressure 10
	    pH        7 
	 END
-------------------------------------------
Beginning of initial solution calculations.
-------------------------------------------

Initial solution 1.	

-----------------------------Solution composition------------------------------

	Elements           Molality       Moles

	Pure water     

----------------------------Description of solution----------------------------

                                       pH  =   7.000    
                                       pe  =   4.000    
      Specific Conductance (µS/cm,  25°C)  = 0
                          Density (g/cm³)  =   0.99745
                               Volume (L)  =   1.00256
                        Viscosity (mPa s)  =   0.88990
                        Activity of water  =   1.000
                 Ionic strength (mol/kgw)  =   1.011e-07
                       Mass of water (kg)  =   1.000e+00
                 Total alkalinity (eq/kg)  =   2.046e-09
                         Temperature (°C)  =  25.00
                           Pressure (atm)  = 10.00
                  Electrical balance (eq)  =  -2.046e-09
 Percent error, 100*(Cat-|An|)/(Cat+|An|)  =  -1.01
                               Iterations  =   0
                                  Total H  = 1.110124e+02
                                  Total O  = 5.550622e+01

----------------------------Distribution of species----------------------------

                                               Log       Log       Log    mole V
   Species          Molality    Activity  Molality  Activity     Gamma   cm³/mol

   OH-             1.021e-07   1.021e-07    -6.991    -6.991    -0.000     -4.10
   H+              1.001e-07   1.000e-07    -7.000    -7.000    -0.000      0.00
   H2O             5.551e+01   1.000e+00     1.744     0.000     0.000     18.06
H(0)          1.408e-25
   H2              7.041e-26   7.041e-26   -25.152   -25.152     0.000     15.00
O(0)          0.000e+00
   O2              0.000e+00   0.000e+00   -42.062   -42.062     0.000     30.39

------------------------------Saturation indices-------------------------------

  Phase               SI** log IAP   log K(298 K,  10 atm)

  H2(g)           -22.05    -25.15   -3.10  H2
  H2O(g)           -1.50      0.00    1.50  H2O
  O2(g)           -39.16    -42.06   -2.90  O2

**For a gas, SI = log10(fugacity). Fugacity = pressure * phi / 1 atm.
  For ideal gases, phi = 1.

------------------
End of simulation.
------------------

------------------------------------
Reading input data for simulation 2.
------------------------------------

	GAS_PHASE 1
	    fixed_pressure
	    pressure 10
	    volume   1
	    temperature 25.0
	    CO2(g) 10
	END
------------------
End of simulation.
------------------

------------------------------------
Reading input data for simulation 3.
------------------------------------

	RATES
	    CO2_kinetic
	start
	 10   k = 3.0*(10^(-2))
	 20  if (SI("CO2(g)")<= -8) then goto 200
	 30  rateco2 = k*ACT("CO2")*ACT("H2O")
	 40  moles = rateco2 * TIME
	 200 SAVE moles
	end
	KINETICS 1
	CO2_kinetic
	      formula CO2 1.0
	      m0       0.1
	      tol      1e-08
	steps 25 in 2 # 50 100 200 300 400 500 600 700 
	step_divide 1e-4
	cvode true
	INCREMENTAL_REACTIONS True
	REACTION_TEMPERATURE 1
	   25
	USE SOLUTION 1
	USE GAS_PHASE 1
	USE KINETICS 1
	USE REACTION_TEMPERATURE 1
	USER_PRINT
	10 PRINT "CO2(g) P, PHI: ",PR_P("CO2(g)"), PR_PHI("CO2(g)")
	20 PRINT " H2(g) P, PHI: ",PR_P("H2(g)"), PR_PHI("H2(g)")
	END
-----------------------------------------
Beginning of batch-reaction calculations.
-----------------------------------------

Reaction step 1.

Using solution 1.	
Using gas phase 1.	
Using temperature 1.	
Using kinetics 1.	

Kinetics 1.	

	Time step: 12.5 seconds  (Incremented time: 12.5 seconds)

	Rate name       Delta Moles Total Moles   Reactant        Coefficient

	CO2_kinetic      -1.000e-01   0.000e+00   CO2                       1

----------------------------------User print-----------------------------------

CO2(g) P, PHI:            10   9.4539e-01 
 H2(g) P, PHI:             0            1 

-----------------------------------Gas phase-----------------------------------

Total pressure: 10.00      atmospheres          (Peng-Robinson calculation)
    Gas volume:   4.90e-01 liters
  Molar volume:   2.31e+00 liters/mole
   P * Vm / RT:  0.94301  (Compressibility Factor Z) 

                                                        Moles in gas
                                            ----------------------------------
Component         log P           P    phi     Initial       Final       Delta

CO2(g)             1.00   1.000e+01  0.945   4.334e-01   2.122e-01  -2.213e-01

-----------------------------Solution composition------------------------------

	Elements           Molality       Moles

	C                 3.213e-01   3.213e-01

----------------------------Description of solution----------------------------

                                       pH  =   3.424      Charge balance
                                       pe  =  13.712      Adjusted to redox equilibrium
      Specific Conductance (µS/cm,  25°C)  = 145
                          Density (g/cm³)  =   1.00041
                               Volume (L)  =   1.01372
                        Viscosity (mPa s)  =   0.91202
                        Activity of water  =   0.995
                 Ionic strength (mol/kgw)  =   3.852e-04
                       Mass of water (kg)  =   1.000e+00
                 Total alkalinity (eq/kg)  =   2.046e-09
                       Total CO2 (mol/kg)  =   3.213e-01
                         Temperature (°C)  =  25.00
                           Pressure (atm)  = 10.00
                  Electrical balance (eq)  =  -2.046e-09
 Percent error, 100*(Cat-|An|)/(Cat+|An|)  =  -0.00
                               Iterations  =  54 (179 overall)
                                  Total H  = 1.110124e+02
                                  Total O  = 5.614872e+01

----------------------------Distribution of species----------------------------

                                               Log       Log       Log    mole V
   Species          Molality    Activity  Molality  Activity     Gamma   cm³/mol

   H+              3.852e-04   3.769e-04    -3.414    -3.424    -0.009      0.00
   OH-             2.754e-11   2.693e-11   -10.560   -10.570    -0.010     -4.09
   H2O             5.551e+01   9.946e-01     1.744    -0.002     0.000     18.06
C(-4)         0.000e+00
   CH4             0.000e+00   0.000e+00  -113.199  -113.199     0.000     35.47
C(4)          3.213e-01
   CO2             3.176e-01   3.176e-01    -0.498    -0.498     0.000     34.78
   (CO2)2          1.640e-03   1.640e-03    -2.785    -2.785     0.000     68.73
   HCO3-           3.852e-04   3.767e-04    -3.414    -3.424    -0.010     24.57
   CO3-2           5.179e-11   4.738e-11   -10.286   -10.324    -0.039     -4.64
H(0)          7.517e-38
   H2              3.759e-38   3.759e-38   -37.425   -37.425     0.000     15.00
O(0)          6.021e-18
   O2              3.011e-18   3.011e-18   -17.521   -17.521     0.000     30.39

------------------------------Saturation indices-------------------------------

  Phase               SI** log IAP   log K(298 K,  10 atm)

  CH4(g)         -110.39   -113.20   -2.81  CH4
  CO2(g)            0.98     -0.50   -1.47  CO2	 Pressure  10.0 atm, phi 0.945
  H2(g)           -34.32    -37.42   -3.10  H2
  H2O(g)           -1.50     -0.00    1.50  H2O
  O2(g)           -14.62    -17.52   -2.90  O2

**For a gas, SI = log10(fugacity). Fugacity = pressure * phi / 1 atm.
  For ideal gases, phi = 1.

Reaction step 2.

Using solution 1.	
Using gas phase 1.	
Using temperature 1.	
Using kinetics 1.	

Kinetics 1.	

	Time step: 12.5 seconds  (Incremented time: 25 seconds)

	Rate name       Delta Moles Total Moles   Reactant        Coefficient

	CO2_kinetic      -0.000e+00   0.000e+00   CO2                       1

----------------------------------User print-----------------------------------

CO2(g) P, PHI:            10   9.4539e-01 
 H2(g) P, PHI:             0            1 

-----------------------------------Gas phase-----------------------------------

Total pressure: 10.00      atmospheres          (Peng-Robinson calculation)
    Gas volume:   4.90e-01 liters
  Molar volume:   2.31e+00 liters/mole
   P * Vm / RT:  0.94301  (Compressibility Factor Z) 

                                                        Moles in gas
                                            ----------------------------------
Component         log P           P    phi     Initial       Final       Delta

CO2(g)             1.00   1.000e+01  0.945   2.122e-01   2.122e-01   7.216e-15

-----------------------------Solution composition------------------------------

	Elements           Molality       Moles

	C                 3.213e-01   3.213e-01

----------------------------Description of solution----------------------------

                                       pH  =   3.424      Charge balance
                                       pe  =  13.712      Adjusted to redox equilibrium
      Specific Conductance (µS/cm,  25°C)  = 145
                          Density (g/cm³)  =   1.00041
                               Volume (L)  =   1.01372
                        Viscosity (mPa s)  =   0.91202
                        Activity of water  =   0.995
                 Ionic strength (mol/kgw)  =   3.852e-04
                       Mass of water (kg)  =   1.000e+00
                 Total alkalinity (eq/kg)  =   2.046e-09
                       Total CO2 (mol/kg)  =   3.213e-01
                         Temperature (°C)  =  25.00
                           Pressure (atm)  = 10.00
                  Electrical balance (eq)  =  -2.046e-09
 Percent error, 100*(Cat-|An|)/(Cat+|An|)  =  -0.00
                               Iterations  =   0
                                  Total H  = 1.110124e+02
                                  Total O  = 5.614872e+01

----------------------------Distribution of species----------------------------

                                               Log       Log       Log    mole V
   Species          Molality    Activity  Molality  Activity     Gamma   cm³/mol

   H+              3.852e-04   3.769e-04    -3.414    -3.424    -0.009      0.00
   OH-             2.754e-11   2.693e-11   -10.560   -10.570    -0.010     -4.09
   H2O             5.551e+01   9.946e-01     1.744    -0.002     0.000     18.06
C(-4)         0.000e+00
   CH4             0.000e+00   0.000e+00  -113.199  -113.199     0.000     35.47
C(4)          3.213e-01
   CO2             3.176e-01   3.176e-01    -0.498    -0.498     0.000     34.78
   (CO2)2          1.640e-03   1.640e-03    -2.785    -2.785     0.000     68.73
   HCO3-           3.852e-04   3.767e-04    -3.414    -3.424    -0.010     24.57
   CO3-2           5.179e-11   4.738e-11   -10.286   -10.324    -0.039     -4.64
H(0)          7.517e-38
   H2              3.759e-38   3.759e-38   -37.425   -37.425     0.000     15.00
O(0)          6.021e-18
   O2              3.011e-18   3.011e-18   -17.521   -17.521     0.000     30.39

------------------------------Saturation indices-------------------------------

  Phase               SI** log IAP   log K(298 K,  10 atm)

  CH4(g)         -110.39   -113.20   -2.81  CH4
  CO2(g)            0.98     -0.50   -1.47  CO2
  H2(g)           -34.32    -37.42   -3.10  H2
  H2O(g)           -1.50     -0.00    1.50  H2O
  O2(g)           -14.62    -17.52   -2.90  O2

**For a gas, SI = log10(fugacity). Fugacity = pressure * phi / 1 atm.
  For ideal gases, phi = 1.

------------------
End of simulation.
------------------

------------------------------------
Reading input data for simulation 4.
------------------------------------

	PHASES
	CO2(g)    
	        CO2 = CO2                                                                   
	        log_k           -1.468
	        delta_h -4.776 kcal
	        analytical_expression     108.3865      0.01985076   -6919.53      -40.45154      669365.0
	H2(g)
	        H2 = H2                                                                  
	        log_k           -3.150
	        delta_h -1.759 kcal
	END	
------------------
End of simulation.
------------------

------------------------------------
Reading input data for simulation 5.
------------------------------------

	GAS_PHASE 1
	    fixed_pressure
	    pressure 10
	    volume   1
	    temperature 25.0
	    CO2(g) 10
	END	
------------------
End of simulation.
------------------

------------------------------------
Reading input data for simulation 6.
------------------------------------

	USE SOLUTION 1
	USE GAS_PHASE 1
	USE KINETICS 1
	USE REACTION_TEMPERATURE 1
	END
-----------------------------------------
Beginning of batch-reaction calculations.
-----------------------------------------

Reaction step 1.

Using solution 1.	
Using gas phase 1.	
Using temperature 1.	
Using kinetics 1.	

Kinetics 1.	

	Time step: 12.5 seconds  (Incremented time: 12.5 seconds)

	Rate name       Delta Moles Total Moles   Reactant        Coefficient

	CO2_kinetic      -0.000e+00   0.000e+00   CO2                       1

----------------------------------User print-----------------------------------

CO2(g) P, PHI:    1.0000e+01            1 
 H2(g) P, PHI:             0            1 

-----------------------------------Gas phase-----------------------------------

Total pressure: 10.00      atmospheres 
    Gas volume:   1.68e-01 liters
  Molar volume:   2.45e+00 liters/mole

                                                        Moles in gas
                                            ----------------------------------
Component                log P           P     Initial       Final       Delta

CO2(g)                    1.00   1.000e+01   4.087e-01   6.855e-02  -3.402e-01

-----------------------------Solution composition------------------------------

	Elements           Molality       Moles

	C                 3.402e-01   3.402e-01

----------------------------Description of solution----------------------------

                                       pH  =   3.412      Charge balance
                                       pe  =   2.735      Adjusted to redox equilibrium
      Specific Conductance (µS/cm,  25°C)  = 149
                          Density (g/cm³)  =   1.00058
                               Volume (L)  =   1.01438
                        Viscosity (mPa s)  =   0.91331
                        Activity of water  =   0.994
                 Ionic strength (mol/kgw)  =   3.963e-04
                       Mass of water (kg)  =   1.000e+00
                 Total alkalinity (eq/kg)  =   2.046e-09
                       Total CO2 (mol/kg)  =   3.402e-01
                         Temperature (°C)  =  25.00
                           Pressure (atm)  = 10.00
                  Electrical balance (eq)  =  -2.046e-09
 Percent error, 100*(Cat-|An|)/(Cat+|An|)  =  -0.00
                               Iterations  =   0 (31 overall)
                                  Total H  = 1.110124e+02
                                  Total O  = 5.618657e+01

----------------------------Distribution of species----------------------------

                                               Log       Log       Log    mole V
   Species          Molality    Activity  Molality  Activity     Gamma   cm³/mol

   H+              3.963e-04   3.876e-04    -3.402    -3.412    -0.010      0.00
   OH-             2.678e-11   2.617e-11   -10.572   -10.582    -0.010     -4.09
   H2O             5.551e+01   9.942e-01     1.744    -0.003     0.000     18.06
C(-4)         5.492e-26
   CH4             5.492e-26   5.492e-26   -25.260   -25.260     0.000     35.47
C(4)          3.402e-01
   CO2             3.361e-01   3.361e-01    -0.474    -0.473     0.000     34.78
   (CO2)2          1.837e-03   1.837e-03    -2.736    -2.736     0.000     68.73
   HCO3-           3.963e-04   3.875e-04    -3.402    -3.412    -0.010     24.57
   CO3-2           5.186e-11   4.738e-11   -10.285   -10.324    -0.039     -4.64
H(0)          7.154e-16
   H2              3.577e-16   3.577e-16   -15.446   -15.446     0.000     15.00
O(0)          0.000e+00
   O2              0.000e+00   0.000e+00   -61.479   -61.479     0.000     30.39

------------------------------Saturation indices-------------------------------

  Phase               SI** log IAP   log K(298 K,  10 atm)

  CH4(g)          -22.45    -25.26   -2.81  CH4
  CO2(g)            1.00     -0.47   -1.47  CO2
  H2(g)           -12.29    -15.45   -3.15  H2
  H2O(g)           -1.50     -0.00    1.50  H2O
  O2(g)           -58.58    -61.48   -2.90  O2

**For a gas, SI = log10(fugacity). Fugacity = pressure * phi / 1 atm.
  For ideal gases, phi = 1.

Reaction step 2.

Using solution 1.	
Using gas phase 1.	
Using temperature 1.	
Using kinetics 1.	

Kinetics 1.	

	Time step: 12.5 seconds  (Incremented time: 25 seconds)

	Rate name       Delta Moles Total Moles   Reactant        Coefficient

	CO2_kinetic      -0.000e+00   0.000e+00   CO2                       1

----------------------------------User print-----------------------------------

CO2(g) P, PHI:    1.0000e+01            1 
 H2(g) P, PHI:             0            1 

-----------------------------------Gas phase-----------------------------------

Total pressure: 10.00      atmospheres 
    Gas volume:   1.68e-01 liters
  Molar volume:   2.45e+00 liters/mole

                                                        Moles in gas
                                            ----------------------------------
Component                log P           P     Initial       Final       Delta

CO2(g)                    1.00   1.000e+01   6.855e-02   6.855e-02   1.093e-12

-----------------------------Solution composition------------------------------

	Elements           Molality       Moles

	C                 3.402e-01   3.402e-01

----------------------------Description of solution----------------------------

                                       pH  =   3.412      Charge balance
                                       pe  =   2.735      Adjusted to redox equilibrium
      Specific Conductance (µS/cm,  25°C)  = 149
                          Density (g/cm³)  =   1.00058
                               Volume (L)  =   1.01438
                        Viscosity (mPa s)  =   0.91331
                        Activity of water  =   0.994
                 Ionic strength (mol/kgw)  =   3.963e-04
                       Mass of water (kg)  =   1.000e+00
                 Total alkalinity (eq/kg)  =   2.046e-09
                       Total CO2 (mol/kg)  =   3.402e-01
                         Temperature (°C)  =  25.00
                           Pressure (atm)  = 10.00
                  Electrical balance (eq)  =  -2.046e-09
 Percent error, 100*(Cat-|An|)/(Cat+|An|)  =  -0.00
                               Iterations  =   0
                                  Total H  = 1.110124e+02
                                  Total O  = 5.618657e+01

----------------------------Distribution of species----------------------------

                                               Log       Log       Log    mole V
   Species          Molality    Activity  Molality  Activity     Gamma   cm³/mol

   H+              3.963e-04   3.876e-04    -3.402    -3.412    -0.010      0.00
   OH-             2.678e-11   2.617e-11   -10.572   -10.582    -0.010     -4.09
   H2O             5.551e+01   9.942e-01     1.744    -0.003     0.000     18.06
C(-4)         5.492e-26
   CH4             5.492e-26   5.492e-26   -25.260   -25.260     0.000     35.47
C(4)          3.402e-01
   CO2             3.361e-01   3.361e-01    -0.474    -0.473     0.000     34.78
   (CO2)2          1.837e-03   1.837e-03    -2.736    -2.736     0.000     68.73
   HCO3-           3.963e-04   3.875e-04    -3.402    -3.412    -0.010     24.57
   CO3-2           5.186e-11   4.738e-11   -10.285   -10.324    -0.039     -4.64
H(0)          7.154e-16
   H2              3.577e-16   3.577e-16   -15.446   -15.446     0.000     15.00
O(0)          0.000e+00
   O2              0.000e+00   0.000e+00   -61.479   -61.479     0.000     30.39

------------------------------Saturation indices-------------------------------

  Phase               SI** log IAP   log K(298 K,  10 atm)

  CH4(g)          -22.45    -25.26   -2.81  CH4
  CO2(g)            1.00     -0.47   -1.47  CO2
  H2(g)           -12.29    -15.45   -3.15  H2
  H2O(g)           -1.50     -0.00    1.50  H2O
  O2(g)           -58.58    -61.48   -2.90  O2

**For a gas, SI = log10(fugacity). Fugacity = pressure * phi / 1 atm.
  For ideal gases, phi = 1.

------------------
End of simulation.
------------------

------------------------------------
Reading input data for simulation 7.
------------------------------------

