WARNING: Database file from DATABASE keyword is used; command line argument ignored.
   Input file: pr_h2o
  Output file: pr_h2o.out
Database file: ../database/phreeqc.dat

------------------
Reading data base.
------------------

	SOLUTION_MASTER_SPECIES
	SOLUTION_SPECIES
	PHASES
	GAS_BINARY_PARAMETERS
	EXCHANGE_MASTER_SPECIES
	EXCHANGE_SPECIES
	SURFACE_MASTER_SPECIES
	SURFACE_SPECIES
	MEAN_GAMMAS
	RATES
	END
------------------------------------
Reading input data for simulation 1.
------------------------------------

	DATABASE ../database/phreeqc.dat
	SELECTED_OUTPUT 101
	    file                 pr_h2o_101.sel
	USER_PUNCH 101
	    headings Mu SC
	    start
	10 PUNCH STR_F$(MU, 20, 12)
	20 PUNCH STR_F$(SC, 20, 10)
	    end
	KNOBS
	step_size 2
	pe_step_size 2
	iterations 1000
	PHASES
	H2O(g)
		H2O = H2O
		log_k  1.506
	 delta_h -44.03 kJ
		t_c  647.3
		p_c  217.60
		omega 0.344
		analytical_expression   -16.5066 -2.0013E-3  2710.7  3.7646  0 2.24E-6
	solution
	temp 30
	pH  7 charge
	Na 1.562e0
	Cl 1.562e0
	END
-------------------------------------------
Beginning of initial solution calculations.
-------------------------------------------

Initial solution 1.	

-----------------------------Solution composition------------------------------

	Elements           Molality       Moles

	Cl                1.562e-03   1.562e-03
	Na                1.562e-03   1.562e-03

----------------------------Description of solution----------------------------

                                       pH  =   6.916      Charge balance
                                       pe  =   4.000    
      Specific Conductance (µS/cm,  30°C)  = 210
                          Density (g/cm³)  =   0.99571
                               Volume (L)  =   1.00440
                        Viscosity (mPa s)  =   0.79752
                        Activity of water  =   1.000
                 Ionic strength (mol/kgw)  =   1.562e-03
                       Mass of water (kg)  =   1.000e+00
                 Total alkalinity (eq/kg)  =   7.250e-20
                         Temperature (°C)  =  30.00
                  Electrical balance (eq)  =  -2.262e-16
 Percent error, 100*(Cat-|An|)/(Cat+|An|)  =  -0.00
                               Iterations  =   3
                                  Total H  = 1.110124e+02
                                  Total O  = 5.550622e+01

----------------------------Distribution of species----------------------------

                                               Log       Log       Log    mole V
   Species          Molality    Activity  Molality  Activity     Gamma   cm³/mol

   OH-             1.266e-07   1.210e-07    -6.898    -6.917    -0.019     -3.94
   H+              1.265e-07   1.213e-07    -6.898    -6.916    -0.018      0.00
   H2O             5.551e+01   9.999e-01     1.744    -0.000     0.000     18.09
Cl            1.562e-03
   Cl-             1.562e-03   1.494e-03    -2.806    -2.826    -0.019     18.20
   HCl             6.042e-11   6.051e-11   -10.219   -10.218     0.001     20.69
H(0)          1.983e-25
   H2              9.916e-26   9.920e-26   -25.004   -25.004     0.000     15.34
Na            1.562e-03
   Na+             1.562e-03   1.495e-03    -2.806    -2.826    -0.019     -1.22
O(0)          0.000e+00
   O2              0.000e+00   0.000e+00   -40.728   -40.728     0.000     30.77

------------------------------Saturation indices-------------------------------

  Phase               SI** log IAP   log K(303 K,   1 atm)

  H2(g)           -21.90    -25.00   -3.11  H2
  H2O(g)           -1.38     -0.00    1.38  H2O
  Halite           -7.23     -5.65    1.57  NaCl
  O2(g)           -37.80    -40.73   -2.93  O2

**For a gas, SI = log10(fugacity). Fugacity = pressure * phi / 1 atm.
  For ideal gases, phi = 1.

------------------
End of simulation.
------------------

------------------------------------
Reading input data for simulation 2.
------------------------------------

	GAS_PHASE
	fixed_pressure
	pressure 10
	H2O(g) 1e-20
	END
------------------
End of simulation.
------------------

------------------------------------
Reading input data for simulation 3.
------------------------------------

	REACTION_PRESSURE 1
	0.1 50 in 10
	REACTION_TEMPERATURE 
	50
	USE solution 1
	USE gas_phase 1
	USER_GRAPH 
	20 plot_xy pressure, PR_PHI("H2O(g)")
	30 plot_xy pressure, gas_p * GAS_VM / (0.08206 * tk), y_axis = 2 
	END
-----------------------------------------
Beginning of batch-reaction calculations.
-----------------------------------------

Reaction step 1.

Using solution 1.	
Using gas phase 1.	
Using temperature 1.	
Using pressure 1.	

-----------------------------------Gas phase-----------------------------------

Total pressure:  0.10      atmospheres          (Peng-Robinson calculation)
    Gas volume:   1.47e+04 liters
  Molar volume:   2.65e+02 liters/mole
   P * Vm / RT:  0.99874  (Compressibility Factor Z) 

                                                        Moles in gas
                                            ----------------------------------
Component         log P           P    phi     Initial       Final       Delta

H2O(g)            -1.00   1.000e-01  0.999   4.087e-12   5.549e+01   5.549e+01

-----------------------------Solution composition------------------------------

	Elements           Molality       Moles

	Cl                5.211e+00   1.562e-03
	Na                5.211e+00   1.562e-03

----------------------------Description of solution----------------------------

                                       pH  =   6.599      Charge balance
                                       pe  =  -0.801      Adjusted to redox equilibrium
      Specific Conductance (µS/cm,  50°C)  = 358882
                          Density (g/cm³)  =   1.15908
                               Volume (L)  =   0.00034
                        Viscosity (mPa s)  =   0.98272
                        Activity of water  =   0.823
                 Ionic strength (mol/kgw)  =   5.211e+00
                       Mass of water (kg)  =   2.998e-04
                 Total alkalinity (eq/kg)  =   2.437e-08
                         Temperature (°C)  =  50.00
                           Pressure (atm)  =  0.10
                  Electrical balance (eq)  =  -7.348e-12
 Percent error, 100*(Cat-|An|)/(Cat+|An|)  =  -0.00
                               Iterations  = 141
                                  Total H  = 3.327830e-02
                                  Total O  = 1.663915e-02

----------------------------Distribution of species----------------------------

                                               Log       Log       Log    mole V
   Species          Molality    Activity  Molality  Activity     Gamma   cm³/mol

   OH-             3.859e-07   1.790e-07    -6.414    -6.747    -0.334      4.57
   H+              3.602e-07   2.516e-07    -6.443    -6.599    -0.156      0.00
   H2O             5.551e+01   8.228e-01     1.744    -0.085     0.000     18.23
Cl            5.211e+00
   Cl-             5.211e+00   3.024e+00     0.717     0.481    -0.236     20.30
   HCl             1.360e-09   2.245e-07    -8.866    -6.649     2.218     21.66
H(0)          8.087e-16
   H2              4.043e-16   1.425e-15   -15.393   -14.846     0.547     16.42
Na            5.211e+00
   Na+             5.211e+00   7.021e+00     0.717     0.846     0.130      1.45
O(0)          0.000e+00
   O2              0.000e+00   0.000e+00   -55.796   -55.275     0.521     31.93

------------------------------Saturation indices-------------------------------

  Phase               SI** log IAP   log K(323 K,   0 atm)

  H2(g)           -11.72    -14.85   -3.13  H2
  H2O(g)           -1.00     -0.08    0.92  H2O	 Pressure   0.1 atm, phi 0.999
  Halite           -0.26      1.33    1.59  NaCl
  O2(g)           -52.24    -55.27   -3.03  O2

**For a gas, SI = log10(fugacity). Fugacity = pressure * phi / 1 atm.
  For ideal gases, phi = 1.

Reaction step 2.

Using solution 1.	
Using gas phase 1.	
Using temperature 1.	
Using pressure 1.	

----------------Fixed-pressure gas phase 1 dissolved completely----------------

-----------------------------Solution composition------------------------------

	Elements           Molality       Moles

	Cl                1.562e-03   1.562e-03
	Na                1.562e-03   1.562e-03

----------------------------Description of solution----------------------------

                                       pH  =   6.629      Charge balance
                                       pe  =   1.233      Adjusted to redox equilibrium
      Specific Conductance (µS/cm,  50°C)  = 292
                          Density (g/cm³)  =   0.98829
                               Volume (L)  =   1.01194
                        Viscosity (mPa s)  =   0.54685
                        Activity of water  =   1.000
                 Ionic strength (mol/kgw)  =   1.562e-03
                       Mass of water (kg)  =   1.000e+00
                 Total alkalinity (eq/kg)  =   4.136e-14
                         Temperature (°C)  =  50.00
                           Pressure (atm)  =  5.64
                  Electrical balance (eq)  =  -4.053e-14
 Percent error, 100*(Cat-|An|)/(Cat+|An|)  =  -0.00
                               Iterations  =  11
                                  Total H  = 1.110124e+02
                                  Total O  = 5.550622e+01

----------------------------Distribution of species----------------------------

                                               Log       Log       Log    mole V
   Species          Molality    Activity  Molality  Activity     Gamma   cm³/mol

   OH-             2.452e-07   2.341e-07    -6.610    -6.631    -0.020     -3.79
   H+              2.451e-07   2.347e-07    -6.611    -6.629    -0.019      0.00
   H2O             5.551e+01   9.999e-01     1.744    -0.000     0.000     18.23
Cl            1.562e-03
   Cl-             1.562e-03   1.491e-03    -2.806    -2.826    -0.020     18.24
   HCl             1.030e-10   1.032e-10    -9.987    -9.986     0.001     21.66
H(0)          2.112e-19
   H2              1.056e-19   1.056e-19   -18.976   -18.976     0.000     16.42
Na            1.562e-03
   Na+             1.562e-03   1.492e-03    -2.806    -2.826    -0.020     -0.50
O(0)          0.000e+00
   O2              0.000e+00   0.000e+00   -46.848   -46.848     0.000     31.91

------------------------------Saturation indices-------------------------------

  Phase               SI** log IAP   log K(323 K,   6 atm)

  H2(g)           -15.85    -18.98   -3.13  H2
  H2O(g)           -0.91     -0.00    0.91  H2O
  Halite           -7.24     -5.65    1.59  NaCl
  O2(g)           -43.82    -46.85   -3.03  O2

**For a gas, SI = log10(fugacity). Fugacity = pressure * phi / 1 atm.
  For ideal gases, phi = 1.

Reaction step 3.

Using solution 1.	
Using gas phase 1.	
Using temperature 1.	
Using pressure 1.	

----------------Fixed-pressure gas phase 1 dissolved completely----------------

-----------------------------Solution composition------------------------------

	Elements           Molality       Moles

	Cl                1.562e-03   1.562e-03
	Na                1.562e-03   1.562e-03

----------------------------Description of solution----------------------------

                                       pH  =   6.628      Charge balance
                                       pe  =   1.192      Adjusted to redox equilibrium
      Specific Conductance (µS/cm,  50°C)  = 292
                          Density (g/cm³)  =   0.98854
                               Volume (L)  =   1.01169
                        Viscosity (mPa s)  =   0.54696
                        Activity of water  =   1.000
                 Ionic strength (mol/kgw)  =   1.562e-03
                       Mass of water (kg)  =   1.000e+00
                 Total alkalinity (eq/kg)  =  -1.523e-15
                         Temperature (°C)  =  50.00
                           Pressure (atm)  = 11.19
                  Electrical balance (eq)  =   1.487e-15
 Percent error, 100*(Cat-|An|)/(Cat+|An|)  =   0.00
                               Iterations  =  12
                                  Total H  = 1.110124e+02
                                  Total O  = 5.550622e+01

----------------------------Distribution of species----------------------------

                                               Log       Log       Log    mole V
   Species          Molality    Activity  Molality  Activity     Gamma   cm³/mol

   OH-             2.458e-07   2.346e-07    -6.609    -6.630    -0.020     -3.80
   H+              2.457e-07   2.352e-07    -6.610    -6.628    -0.019      0.00
   H2O             5.551e+01   9.999e-01     1.744    -0.000     0.000     18.23
Cl            1.562e-03
   Cl-             1.562e-03   1.491e-03    -2.806    -2.826    -0.020     18.25
   HCl             1.032e-10   1.034e-10    -9.986    -9.986     0.001     21.65
H(0)          2.561e-19
   H2              1.280e-19   1.281e-19   -18.893   -18.892     0.000     16.42
Na            1.562e-03
   Na+             1.562e-03   1.492e-03    -2.806    -2.826    -0.020     -0.48
O(0)          0.000e+00
   O2              0.000e+00   0.000e+00   -47.018   -47.018     0.000     31.90

------------------------------Saturation indices-------------------------------

  Phase               SI** log IAP   log K(323 K,  11 atm)

  H2(g)           -15.76    -18.89   -3.13  H2
  H2O(g)           -0.91     -0.00    0.91  H2O
  Halite           -7.24     -5.65    1.59  NaCl
  O2(g)           -43.98    -47.02   -3.04  O2

**For a gas, SI = log10(fugacity). Fugacity = pressure * phi / 1 atm.
  For ideal gases, phi = 1.

Reaction step 4.

Using solution 1.	
Using gas phase 1.	
Using temperature 1.	
Using pressure 1.	

----------------Fixed-pressure gas phase 1 dissolved completely----------------

-----------------------------Solution composition------------------------------

	Elements           Molality       Moles

	Cl                1.562e-03   1.562e-03
	Na                1.562e-03   1.562e-03

----------------------------Description of solution----------------------------

                                       pH  =   6.627      Charge balance
                                       pe  =   1.213      Adjusted to redox equilibrium
      Specific Conductance (µS/cm,  50°C)  = 292
                          Density (g/cm³)  =   0.98878
                               Volume (L)  =   1.01144
                        Viscosity (mPa s)  =   0.54707
                        Activity of water  =   1.000
                 Ionic strength (mol/kgw)  =   1.562e-03
                       Mass of water (kg)  =   1.000e+00
                 Total alkalinity (eq/kg)  =  -3.680e-17
                         Temperature (°C)  =  50.00
                           Pressure (atm)  = 16.73
                  Electrical balance (eq)  =  -1.898e-16
 Percent error, 100*(Cat-|An|)/(Cat+|An|)  =  -0.00
                               Iterations  =  13
                                  Total H  = 1.110124e+02
                                  Total O  = 5.550622e+01

----------------------------Distribution of species----------------------------

                                               Log       Log       Log    mole V
   Species          Molality    Activity  Molality  Activity     Gamma   cm³/mol

   OH-             2.464e-07   2.352e-07    -6.608    -6.629    -0.020     -3.81
   H+              2.463e-07   2.358e-07    -6.609    -6.627    -0.019      0.00
   H2O             5.551e+01   9.999e-01     1.744    -0.000     0.000     18.22
Cl            1.562e-03
   Cl-             1.562e-03   1.491e-03    -2.806    -2.826    -0.020     18.25
   HCl             1.034e-10   1.035e-10    -9.986    -9.985     0.001     21.65
H(0)          2.319e-19
   H2              1.159e-19   1.160e-19   -18.936   -18.936     0.000     16.42
Na            1.562e-03
   Na+             1.562e-03   1.492e-03    -2.806    -2.826    -0.020     -0.46
O(0)          0.000e+00
   O2              0.000e+00   0.000e+00   -46.934   -46.934     0.000     31.89

------------------------------Saturation indices-------------------------------

  Phase               SI** log IAP   log K(323 K,  17 atm)

  H2(g)           -15.80    -18.94   -3.13  H2
  H2O(g)           -0.91     -0.00    0.91  H2O
  Halite           -7.24     -5.65    1.59  NaCl
  O2(g)           -43.90    -46.93   -3.04  O2

**For a gas, SI = log10(fugacity). Fugacity = pressure * phi / 1 atm.
  For ideal gases, phi = 1.

Reaction step 5.

Using solution 1.	
Using gas phase 1.	
Using temperature 1.	
Using pressure 1.	

----------------Fixed-pressure gas phase 1 dissolved completely----------------

-----------------------------Solution composition------------------------------

	Elements           Molality       Moles

	Cl                1.562e-03   1.562e-03
	Na                1.562e-03   1.562e-03

----------------------------Description of solution----------------------------

                                       pH  =   6.626      Charge balance
                                       pe  =   1.203      Adjusted to redox equilibrium
      Specific Conductance (µS/cm,  50°C)  = 292
                          Density (g/cm³)  =   0.98902
                               Volume (L)  =   1.01120
                        Viscosity (mPa s)  =   0.54719
                        Activity of water  =   1.000
                 Ionic strength (mol/kgw)  =   1.562e-03
                       Mass of water (kg)  =   1.000e+00
                 Total alkalinity (eq/kg)  =  -2.390e-16
                         Temperature (°C)  =  50.00
                           Pressure (atm)  = 22.28
                  Electrical balance (eq)  =   1.204e-17
 Percent error, 100*(Cat-|An|)/(Cat+|An|)  =   0.00
                               Iterations  =  12
                                  Total H  = 1.110124e+02
                                  Total O  = 5.550622e+01

----------------------------Distribution of species----------------------------

                                               Log       Log       Log    mole V
   Species          Molality    Activity  Molality  Activity     Gamma   cm³/mol

   OH-             2.469e-07   2.357e-07    -6.607    -6.628    -0.020     -3.81
   H+              2.468e-07   2.363e-07    -6.608    -6.626    -0.019      0.00
   H2O             5.551e+01   9.999e-01     1.744    -0.000     0.000     18.22
Cl            1.562e-03
   Cl-             1.562e-03   1.491e-03    -2.806    -2.826    -0.020     18.25
   HCl             1.035e-10   1.037e-10    -9.985    -9.984     0.001     21.65
H(0)          2.432e-19
   H2              1.216e-19   1.216e-19   -18.915   -18.915     0.000     16.42
Na            1.562e-03
   Na+             1.562e-03   1.492e-03    -2.806    -2.826    -0.020     -0.45
O(0)          0.000e+00
   O2              0.000e+00   0.000e+00   -46.978   -46.978     0.000     31.88

------------------------------Saturation indices-------------------------------

  Phase               SI** log IAP   log K(323 K,  22 atm)

  H2(g)           -15.78    -18.91   -3.13  H2
  H2O(g)           -0.91     -0.00    0.91  H2O
  Halite           -7.24     -5.65    1.59  NaCl
  O2(g)           -43.94    -46.98   -3.04  O2

**For a gas, SI = log10(fugacity). Fugacity = pressure * phi / 1 atm.
  For ideal gases, phi = 1.

Reaction step 6.

Using solution 1.	
Using gas phase 1.	
Using temperature 1.	
Using pressure 1.	

----------------Fixed-pressure gas phase 1 dissolved completely----------------

-----------------------------Solution composition------------------------------

	Elements           Molality       Moles

	Cl                1.562e-03   1.562e-03
	Na                1.562e-03   1.562e-03

----------------------------Description of solution----------------------------

                                       pH  =   6.625      Charge balance
                                       pe  =   1.263      Adjusted to redox equilibrium
      Specific Conductance (µS/cm,  50°C)  = 293
                          Density (g/cm³)  =   0.98926
                               Volume (L)  =   1.01095
                        Viscosity (mPa s)  =   0.54730
                        Activity of water  =   1.000
                 Ionic strength (mol/kgw)  =   1.562e-03
                       Mass of water (kg)  =   1.000e+00
                 Total alkalinity (eq/kg)  =  -2.699e-15
                         Temperature (°C)  =  50.00
                           Pressure (atm)  = 27.82
                  Electrical balance (eq)  =   2.855e-15
 Percent error, 100*(Cat-|An|)/(Cat+|An|)  =   0.00
                               Iterations  =  12
                                  Total H  = 1.110124e+02
                                  Total O  = 5.550622e+01

----------------------------Distribution of species----------------------------

                                               Log       Log       Log    mole V
   Species          Molality    Activity  Molality  Activity     Gamma   cm³/mol

   OH-             2.475e-07   2.363e-07    -6.606    -6.627    -0.020     -3.82
   H+              2.474e-07   2.369e-07    -6.607    -6.625    -0.019      0.00
   H2O             5.551e+01   9.999e-01     1.744    -0.000     0.000     18.21
Cl            1.562e-03
   Cl-             1.562e-03   1.491e-03    -2.806    -2.826    -0.020     18.25
   HCl             1.037e-10   1.039e-10    -9.984    -9.984     0.001     21.64
H(0)          1.850e-19
   H2              9.249e-20   9.252e-20   -19.034   -19.034     0.000     16.42
Na            1.562e-03
   Na+             1.562e-03   1.492e-03    -2.806    -2.826    -0.020     -0.43
O(0)          0.000e+00
   O2              0.000e+00   0.000e+00   -46.743   -46.743     0.000     31.86

------------------------------Saturation indices-------------------------------

  Phase               SI** log IAP   log K(323 K,  28 atm)

  H2(g)           -15.90    -19.03   -3.13  H2
  H2O(g)           -0.91     -0.00    0.91  H2O
  Halite           -7.25     -5.65    1.59  NaCl
  O2(g)           -43.70    -46.74   -3.04  O2

**For a gas, SI = log10(fugacity). Fugacity = pressure * phi / 1 atm.
  For ideal gases, phi = 1.

Reaction step 7.

Using solution 1.	
Using gas phase 1.	
Using temperature 1.	
Using pressure 1.	

----------------Fixed-pressure gas phase 1 dissolved completely----------------

-----------------------------Solution composition------------------------------

	Elements           Molality       Moles

	Cl                1.562e-03   1.562e-03
	Na                1.562e-03   1.562e-03

----------------------------Description of solution----------------------------

                                       pH  =   6.624      Charge balance
                                       pe  =   1.139      Adjusted to redox equilibrium
      Specific Conductance (µS/cm,  50°C)  = 293
                          Density (g/cm³)  =   0.98950
                               Volume (L)  =   1.01070
                        Viscosity (mPa s)  =   0.54741
                        Activity of water  =   1.000
                 Ionic strength (mol/kgw)  =   1.562e-03
                       Mass of water (kg)  =   1.000e+00
                 Total alkalinity (eq/kg)  =  -3.715e-18
                         Temperature (°C)  =  50.00
                           Pressure (atm)  = 33.37
                  Electrical balance (eq)  =  -2.227e-16
 Percent error, 100*(Cat-|An|)/(Cat+|An|)  =  -0.00
                               Iterations  =  13
                                  Total H  = 1.110124e+02
                                  Total O  = 5.550622e+01

----------------------------Distribution of species----------------------------

                                               Log       Log       Log    mole V
   Species          Molality    Activity  Molality  Activity     Gamma   cm³/mol

   OH-             2.481e-07   2.368e-07    -6.605    -6.626    -0.020     -3.82
   H+              2.480e-07   2.374e-07    -6.606    -6.624    -0.019      0.00
   H2O             5.551e+01   9.999e-01     1.744    -0.000     0.000     18.21
Cl            1.562e-03
   Cl-             1.562e-03   1.491e-03    -2.806    -2.826    -0.020     18.25
   HCl             1.039e-10   1.040e-10    -9.984    -9.983     0.001     21.64
H(0)          3.277e-19
   H2              1.638e-19   1.639e-19   -18.786   -18.785     0.000     16.41
Na            1.562e-03
   Na+             1.562e-03   1.492e-03    -2.806    -2.826    -0.020     -0.41
O(0)          0.000e+00
   O2              0.000e+00   0.000e+00   -47.242   -47.242     0.000     31.85

------------------------------Saturation indices-------------------------------

  Phase               SI** log IAP   log K(323 K,  33 atm)

  H2(g)           -15.65    -18.79   -3.14  H2
  H2O(g)           -0.91     -0.00    0.91  H2O
  Halite           -7.25     -5.65    1.59  NaCl
  O2(g)           -44.20    -47.24   -3.05  O2

**For a gas, SI = log10(fugacity). Fugacity = pressure * phi / 1 atm.
  For ideal gases, phi = 1.

Reaction step 8.

Using solution 1.	
Using gas phase 1.	
Using temperature 1.	
Using pressure 1.	

----------------Fixed-pressure gas phase 1 dissolved completely----------------

-----------------------------Solution composition------------------------------

	Elements           Molality       Moles

	Cl                1.562e-03   1.562e-03
	Na                1.562e-03   1.562e-03

----------------------------Description of solution----------------------------

                                       pH  =   6.623      Charge balance
                                       pe  =   1.300      Adjusted to redox equilibrium
      Specific Conductance (µS/cm,  50°C)  = 293
                          Density (g/cm³)  =   0.98974
                               Volume (L)  =   1.01046
                        Viscosity (mPa s)  =   0.54752
                        Activity of water  =   1.000
                 Ionic strength (mol/kgw)  =   1.562e-03
                       Mass of water (kg)  =   1.000e+00
                 Total alkalinity (eq/kg)  =  -2.949e-16
                         Temperature (°C)  =  50.00
                           Pressure (atm)  = 38.91
                  Electrical balance (eq)  =   6.913e-17
 Percent error, 100*(Cat-|An|)/(Cat+|An|)  =   0.00
                               Iterations  =  12
                                  Total H  = 1.110124e+02
                                  Total O  = 5.550622e+01

----------------------------Distribution of species----------------------------

                                               Log       Log       Log    mole V
   Species          Molality    Activity  Molality  Activity     Gamma   cm³/mol

   OH-             2.486e-07   2.374e-07    -6.604    -6.625    -0.020     -3.83
   H+              2.485e-07   2.380e-07    -6.605    -6.623    -0.019      0.00
   H2O             5.551e+01   9.999e-01     1.744    -0.000     0.000     18.20
Cl            1.562e-03
   Cl-             1.562e-03   1.491e-03    -2.806    -2.826    -0.020     18.26
   HCl             1.040e-10   1.042e-10    -9.983    -9.982     0.001     21.64
H(0)          1.565e-19
   H2              7.824e-20   7.827e-20   -19.107   -19.106     0.000     16.41
Na            1.562e-03
   Na+             1.562e-03   1.492e-03    -2.806    -2.826    -0.020     -0.39
O(0)          0.000e+00
   O2              0.000e+00   0.000e+00   -46.603   -46.603     0.000     31.84

------------------------------Saturation indices-------------------------------

  Phase               SI** log IAP   log K(323 K,  39 atm)

  H2(g)           -15.97    -19.11   -3.14  H2
  H2O(g)           -0.90     -0.00    0.90  H2O
  Halite           -7.25     -5.65    1.59  NaCl
  O2(g)           -43.55    -46.60   -3.05  O2

**For a gas, SI = log10(fugacity). Fugacity = pressure * phi / 1 atm.
  For ideal gases, phi = 1.

Reaction step 9.

Using solution 1.	
Using gas phase 1.	
Using temperature 1.	
Using pressure 1.	

----------------Fixed-pressure gas phase 1 dissolved completely----------------

-----------------------------Solution composition------------------------------

	Elements           Molality       Moles

	Cl                1.562e-03   1.562e-03
	Na                1.562e-03   1.562e-03

----------------------------Description of solution----------------------------

                                       pH  =   6.622      Charge balance
                                       pe  =   1.226      Adjusted to redox equilibrium
      Specific Conductance (µS/cm,  50°C)  = 293
                          Density (g/cm³)  =   0.98998
                               Volume (L)  =   1.01021
                        Viscosity (mPa s)  =   0.54764
                        Activity of water  =   1.000
                 Ionic strength (mol/kgw)  =   1.562e-03
                       Mass of water (kg)  =   1.000e+00
                 Total alkalinity (eq/kg)  =  -1.265e-18
                         Temperature (°C)  =  50.00
                           Pressure (atm)  = 44.46
                  Electrical balance (eq)  =  -2.236e-16
 Percent error, 100*(Cat-|An|)/(Cat+|An|)  =  -0.00
                               Iterations  =  13
                                  Total H  = 1.110124e+02
                                  Total O  = 5.550622e+01

----------------------------Distribution of species----------------------------

                                               Log       Log       Log    mole V
   Species          Molality    Activity  Molality  Activity     Gamma   cm³/mol

   OH-             2.492e-07   2.379e-07    -6.603    -6.624    -0.020     -3.84
   H+              2.491e-07   2.385e-07    -6.604    -6.622    -0.019      0.00
   H2O             5.551e+01   9.999e-01     1.744    -0.000     0.000     18.20
Cl            1.562e-03
   Cl-             1.562e-03   1.491e-03    -2.806    -2.826    -0.020     18.26
   HCl             1.042e-10   1.044e-10    -9.982    -9.981     0.001     21.63
H(0)          2.200e-19
   H2              1.100e-19   1.100e-19   -18.959   -18.958     0.000     16.41
Na            1.562e-03
   Na+             1.562e-03   1.492e-03    -2.806    -2.826    -0.020     -0.38
O(0)          0.000e+00
   O2              0.000e+00   0.000e+00   -46.901   -46.901     0.000     31.83

------------------------------Saturation indices-------------------------------

  Phase               SI** log IAP   log K(323 K,  44 atm)

  H2(g)           -15.82    -18.96   -3.14  H2
  H2O(g)           -0.90     -0.00    0.90  H2O
  Halite           -7.25     -5.65    1.60  NaCl
  O2(g)           -43.85    -46.90   -3.05  O2

**For a gas, SI = log10(fugacity). Fugacity = pressure * phi / 1 atm.
  For ideal gases, phi = 1.

Reaction step 10.

Using solution 1.	
Using gas phase 1.	
Using temperature 1.	
Using pressure 1.	

----------------Fixed-pressure gas phase 1 dissolved completely----------------

-----------------------------Solution composition------------------------------

	Elements           Molality       Moles

	Cl                1.562e-03   1.562e-03
	Na                1.562e-03   1.562e-03

----------------------------Description of solution----------------------------

                                       pH  =   6.621      Charge balance
                                       pe  =   1.197      Adjusted to redox equilibrium
      Specific Conductance (µS/cm,  50°C)  = 293
                          Density (g/cm³)  =   0.99022
                               Volume (L)  =   1.00997
                        Viscosity (mPa s)  =   0.54775
                        Activity of water  =   1.000
                 Ionic strength (mol/kgw)  =   1.562e-03
                       Mass of water (kg)  =   1.000e+00
                 Total alkalinity (eq/kg)  =  -5.303e-16
                         Temperature (°C)  =  50.00
                           Pressure (atm)  = 50.00
                  Electrical balance (eq)  =   3.338e-16
 Percent error, 100*(Cat-|An|)/(Cat+|An|)  =   0.00
                               Iterations  =  12
                                  Total H  = 1.110124e+02
                                  Total O  = 5.550622e+01

----------------------------Distribution of species----------------------------

                                               Log       Log       Log    mole V
   Species          Molality    Activity  Molality  Activity     Gamma   cm³/mol

   OH-             2.498e-07   2.385e-07    -6.602    -6.623    -0.020     -3.84
   H+              2.497e-07   2.391e-07    -6.603    -6.621    -0.019      0.00
   H2O             5.551e+01   9.999e-01     1.744    -0.000     0.000     18.20
Cl            1.562e-03
   Cl-             1.562e-03   1.491e-03    -2.806    -2.826    -0.020     18.26
   HCl             1.044e-10   1.045e-10    -9.981    -9.981     0.001     21.63
H(0)          2.513e-19
   H2              1.257e-19   1.257e-19   -18.901   -18.901     0.000     16.41
Na            1.562e-03
   Na+             1.562e-03   1.492e-03    -2.806    -2.826    -0.020     -0.36
O(0)          0.000e+00
   O2              0.000e+00   0.000e+00   -47.019   -47.019     0.000     31.81

------------------------------Saturation indices-------------------------------

  Phase               SI** log IAP   log K(323 K,  50 atm)

  H2(g)           -15.76    -18.90   -3.14  H2
  H2O(g)           -0.90     -0.00    0.90  H2O
  Halite           -7.25     -5.65    1.60  NaCl
  O2(g)           -43.96    -47.02   -3.06  O2

**For a gas, SI = log10(fugacity). Fugacity = pressure * phi / 1 atm.
  For ideal gases, phi = 1.

------------------
End of simulation.
------------------

------------------------------------
Reading input data for simulation 4.
------------------------------------

