WARNING: Database file from DATABASE keyword is used; command line argument ignored.
   Input file: PR_initial_gas_noredox
  Output file: PR_initial_gas_noredox.out
Database file: ../database/pitzer.dat

------------------
Reading data base.
------------------

	SOLUTION_MASTER_SPECIES
	SOLUTION_SPECIES
	PHASES
	PITZER
	GAS_BINARY_PARAMETERS
	EXCHANGE_MASTER_SPECIES
	EXCHANGE_SPECIES
	SURFACE_MASTER_SPECIES
	SURFACE_SPECIES
	MEAN_GAMMAS
	END
------------------------------------
Reading input data for simulation 1.
------------------------------------

	DATABASE ../database/pitzer.dat
	SELECTED_OUTPUT 101
	    file                 PR_initial_gas_noredox_101.sel
	USER_PUNCH 101
	    headings Mu SC
	    start
	10 PUNCH STR_F$(MU, 20, 12)
	20 PUNCH STR_F$(SC, 20, 10)
	    end

	Reading data from gas_no_redox.dat ...
	SOLUTION_MASTER_SPECIES
	Amm		AmmH+	0.0	AmmH	17.0 # NH3
	Mth		Mth	0.0	Mth	16 #CH4
	Sg		HSg-	1.0	Sg	32 # H2S
	Ng		Ng		0.0	Ng	28 # N2
	SOLUTION_SPECIES
	AmmH+ = AmmH+
		dw	 1.98e-9
		millero 17.47 -3.400e-3 7.600e-4 # From Millero, 1971, d, e and f not reported
	AmmH+ = Amm + H+
		log_k	-9.252
		delta_h 12.48	kcal
		analytical_expression    0.6322    -0.001225     -2835.76
		dw	 2.28e-9
	Mth = Mth
	HSg- = HSg-
		dw	 1.73e-9
	HSg- = Sg-2 + H+
		log_k	-12.918
		delta_h 12.1	kcal
		dw	 0.731e-9
	HSg- + H+ = H2Sg
		log_k	6.994
		delta_h -5.30	kcal
		analytical_expression  -11.17   0.02386  3279.0
		dw	 2.1e-9
	Ng = Ng
	H2O = OH- + H+
		log_k	   -13.998
		delta_h 13.345  kcal
		dw	 5.27e-9
		vm -22
	CO3-2 + H+ = HCO3-
		log_k	10.329
		delta_h -3.561	kcal
		analytical_expression	107.8871	0.03252849	-5151.79	-38.92561	563713.9
		dw	 1.18e-9
		millero 21.07 0.185 -0.002248 2.29 -0.006644 -3.667E-06
		vm 28
	CO3-2 + 2 H+ = CO2 + H2O
		log_k	16.681
		delta_h -5.738	kcal
		analytical_expression	464.1965	0.09344813	-26986.16	-165.75951	2248628.9
		dw	 1.92e-9
		vm 27
	PHASES
	Amm(g)
		Amm = Amm
		log_k	   1.7966
		analytical_expression -1.8758e+001 3.3670e-004 2.5113e+003 4.8619e+000 3.9192e+001
		t_c  405.6 # critical T, K
		p_c   111.3 # critical P, atm
		omega 0.25 #  acentric factor
		vm 30 # (estimated, not checked)
	Mth(g)
		Mth = Mth
		log_k	   -2.8502
		analytical_expression -2.4027e+001 4.7146e-003 3.7227e+002 6.4264e+000 2.3362e+005
		T_c  190.6 # critical T, K
		p_c   45.40 # critical P, atm
		omega 0.008 #  acentric factor
		vm 33
	CO2(g)
		CO2 = CO2
		log_k	-1.468
		delta_h  -4.776 kcal
		analytical_expression	108.3865	0.01985076	-6919.53	-40.45154	669365.0
		t_c  304.2 # critical T, K
		p_c   72.80 # critical P, atm
		omega 0.225 #  acentric factor
		vm   28 # 0   0  0   0 -6.7E-08   1.56E-05
	H2O(g)
		H2O = H2O
		log_k  1.506
	 delta_h -44.03 kJ
		T_c  647.3 # critical T, K
		p_c  217.60 # critical P, atm
		omega 0.344 #  acentric factor
		vm 0# + temperature and pressure terms
	H2Sg(g)
		H2Sg  =  H+ + HSg-
		log_k	   -7.9759
		analytical_expression -9.7354e+001 -3.1576e-002 1.8285e+003 3.7440e+001 2.8560e+001
		T_c  373.2 # critical T, K
		p_c  88.20 # critical P, atm
		omega 0.1 #  acentric factor
		vm 30
	Ng(g)
		Ng = Ng
		log_k		 -3.1864
		analytical_expression -58.453 1.81800E-03  3199  17.909 -27460
		T_c  126.2 # critical T, K
		p_c   33.50 # critical P, atm
		omega 0.039 #  acentric factor
		vm 30
	SOLUTION_SPECIES
	H2O = OH- + H+
		log_k	-14.0
		delta_h 13.362	kcal
		analytical_expression	-283.971	-0.05069842	13323.0	102.24447	-1119669.0
		gamma	3.5	0.0
		dw	 5.27e-9
		vm -22
	CO3-2 + H+ = HCO3-
		log_k	10.329
		delta_h -3.561	kcal
		analytical_expression	107.8871	0.03252849	-5151.79	-38.92561	563713.9
		gamma	5.4	0.0
		dw	 1.18e-9
		millero 21.07 0.185 -0.002248 2.29 -0.006644 -3.667E-06
		vm 28
	CO3-2 + 2 H+ = CO2 + H2O
		log_k	16.681
		delta_h -5.738	kcal
		analytical_expression	464.1965	0.09344813	-26986.16	-165.75951	2248628.9
		dw	 1.92e-9
		vm 27
	PHASES
	Calcite
		CaCO3 = CO3-2 + Ca+2
		log_k	-8.48
		delta_h -2.297 kcal
		analytical_expression	-171.9065	-0.077993	2839.319	71.595
		vm -50 cm3/mol
	Strontianite
		SrCO3 = Sr+2 + CO3-2
		log_k	-9.271
		delta_h -0.400 kcal
		analytical_expression	155.0305	0.0	-7239.594	-56.58638
	SOLUTION 1 Khuff reservoir: Franco et al., 2009, SAJT.
	units ppm
	pH 7
	temp 132
	pressure 400  # 13000 feet
	Na 54936
	Ca 14259
	Mg 1524
	S(6) 100
	Cl 114055
	Alkalinity 434 as HCO3
	Ba 22
	K 5887
	Sr 1047
	END
-------------------------------------------
Beginning of initial solution calculations.
-------------------------------------------

Initial solution 1.	Khuff reservoir: Franco et al., 2009, SAJT.

-----------------------------Solution composition------------------------------

	Elements           Molality       Moles

	Alkalinity        8.806e-03   8.806e-03
	Ba                1.983e-04   1.983e-04
	Ca                4.404e-01   4.404e-01
	Cl                3.983e+00   3.983e+00
	K                 1.864e-01   1.864e-01
	Mg                7.763e-02   7.763e-02
	Na                2.958e+00   2.958e+00
	S(6)              1.289e-03   1.289e-03
	Sr                1.479e-02   1.479e-02

----------------------------Description of solution----------------------------

                                       pH  =   7.000    
                                       pe  =   4.000    
      Specific Conductance (µS/cm, 132°C)  = 637030
                          Density (g/cm³)  =   1.09832
                               Volume (L)  =   1.12713
                        Viscosity (mPa s)  =   0.37078
                        Activity of water  =   0.858
                 Ionic strength (mol/kgw)  =   4.635e+00
                       Mass of water (kg)  =   1.000e+00
                    Total carbon (mol/kg)  =   7.329e-03
                       Total CO2 (mol/kg)  =   7.329e-03
                         Temperature (°C)  = 132.00
                           Pressure (atm)  = 400.00
                  Electrical balance (eq)  =   2.167e-01
 Percent error, 100*(Cat-|An|)/(Cat+|An|)  =   2.64
                               Iterations  =  21
                         Gamma iterations  =   6
                      Osmotic coefficient  =   1.10683
                         Density of water  =   0.95299
                                  Total H  = 1.110191e+02
                                  Total O  = 5.553374e+01

----------------------------Distribution of species----------------------------

                                                    MacInnes  MacInnes
                                MacInnes       Log       Log       Log    mole V
   Species          Molality    Activity  Molality  Activity     Gamma   cm³/mol

   OH-             2.327e-04   4.464e-05    -3.633    -4.350    -0.717    -86.69
   H+              6.033e-08   1.000e-07    -7.219    -7.000     0.219      0.00
   H2O             5.551e+01   8.582e-01     1.744    -0.066     0.000     18.90
Ba            1.983e-04
   Ba+2            1.983e-04   2.986e-05    -3.703    -4.525    -0.822     -4.60
C(4)          7.329e-03
   HCO3-           5.789e-03   1.966e-03    -2.237    -2.706    -0.469    122.51
   CO3-2           6.560e-04   4.270e-06    -3.183    -5.370    -2.186      3.89
   CO2             4.458e-04   8.725e-04    -3.351    -3.059     0.292    112.97
   MgCO3           4.383e-04   4.383e-04    -3.358    -3.358     0.000    -14.76
Ca            4.404e-01
   Ca+2            4.404e-01   1.269e-01    -0.356    -0.897    -0.540    -13.66
Cl            3.983e+00
   Cl-             3.983e+00   2.143e+00     0.600     0.331    -0.269     18.57
K             1.864e-01
   K+              1.864e-01   1.084e-01    -0.730    -0.965    -0.235     13.00
Mg            7.763e-02
   Mg+2            7.659e-02   2.319e-02    -1.116    -1.635    -0.519    -20.19
   MgOH+           5.954e-04   2.938e-04    -3.225    -3.532    -0.307     (0)  
   MgCO3           4.383e-04   4.383e-04    -3.358    -3.358     0.000    -14.76
Na            2.958e+00
   Na+             2.958e+00   2.630e+00     0.471     0.420    -0.051      2.85
S(6)          1.289e-03
   SO4-2           1.289e-03   4.184e-06    -2.890    -5.378    -2.489     18.37
   HSO4-           1.672e-09   6.001e-10    -8.777    -9.222    -0.445     42.90
Sr            1.479e-02
   Sr+2            1.479e-02   4.901e-03    -1.830    -2.310    -0.480    -14.88

------------------------------Saturation indices-------------------------------

  Phase               SI** log IAP   log K(405 K, 400 atm)

  Anhydrite        -0.58     -6.27   -5.69  CaSO4
  Aragonite         3.11     -6.27   -9.37  CaCO3
  Arcanite         -5.91     -7.31   -1.40  K2SO4
  Artinite          1.46     14.69   13.23  Mg2CO3(OH)2:3H2O
  Barite           -0.46     -9.90   -9.45  BaSO4
  Bischofite       -4.65     -1.37    3.28  MgCl2:6H2O
  Bloedite         -9.73    -11.82   -2.09  Na2Mg(SO4)2:4H2O
  Brucite          -1.53    -10.34   -8.80  Mg(OH)2
  Burkeite        -13.33    -13.61   -0.28  Na6CO3(SO4)2
  Calcite           3.75     -6.27  -10.01  CaCO3
  Carnallite       -5.90     -2.01    3.89  KMgCl3:6H2O
  Celestite        -0.49     -7.69   -7.19  SrSO4
  CO2(g)           -0.56     -3.06   -2.50  CO2
  Dolomite          7.33    -13.27  -20.60  CaMg(CO3)2
  Epsomite         -6.09     -7.48   -1.39  MgSO4:7H2O
  Gaylussite       -1.22    -11.13   -9.91  CaNa2(CO3)2:5H2O
  Glaserite       -10.82    -13.23   -2.41  NaK3(SO4)2
  Glauberite       -3.71    -10.81   -7.11  Na2Ca(SO4)2
  Goergeyite       -7.78    -38.75  -30.97  K2Ca5(SO4)6H2O
  Gypsum           -1.35     -6.41   -5.06  CaSO4:2H2O
  H2O(g)            0.56     -0.07   -0.63  H2O
  Halite           -0.78      0.75    1.53  NaCl
  Hexahydrite      -5.65     -7.41   -1.76  MgSO4:6H2O
  Huntite          12.01     11.37   -0.64  CaMg3(CO3)4
  Kainite          -7.20     -7.85   -0.64  KMgClSO4:3H2O
  Kalicinite       -3.31    -13.33  -10.03  KHCO3
  Kieserite        -4.30     -7.08   -2.78  MgSO4:H2O
  Labile_S         -9.34    -15.49   -6.14  Na4Ca(SO4)3:2H2O
  Leonhardite      -6.01     -7.28   -1.27  MgSO4:4H2O
  Leonite          -9.99    -14.59   -4.59  K2Mg(SO4)2:4H2O
  Magnesite         0.88     -7.00   -7.89  MgCO3
  MgCl2_2H2O       -8.82     -1.11    7.71  MgCl2:2H2O
  MgCl2_4H2O       -5.58     -1.24    4.34  MgCl2:4H2O
  Mirabilite       -5.40     -5.20    0.20  Na2SO4:10H2O
  Misenite        -75.35    -87.37  -12.02  K8H6(SO4)7
  Nahcolite        -1.37    -11.95  -10.58  NaHCO3
  Natron           -3.33     -5.19   -1.86  Na2CO3:10H2O
  Nesquehonite     -1.83     -7.20   -5.38  MgCO3:3H2O
  Pentahydrite     -5.58     -7.35   -1.77  MgSO4:5H2O
  Pirssonite       -1.50    -10.93   -9.43  Na2Ca(CO3)2:2H2O
  Polyhalite      -13.93    -27.00  -13.08  K2MgCa2(SO4)4:2H2O
  Portlandite      -5.38     -9.60   -4.22  Ca(OH)2
  Schoenite        -9.58    -14.72   -5.14  K2Mg(SO4)2:6H2O
  Strontianite      2.66     -7.68  -10.34  SrCO3
  Sylvite          -2.03     -0.63    1.40  KCl
  Syngenite        -6.02    -13.65   -7.63  K2Ca(SO4)2:H2O
  Thenardite       -3.70     -4.54   -0.84  Na2SO4
  Trona            -5.50    -16.61  -11.11  Na3H(CO3)2:2H2O

**For a gas, SI = log10(fugacity). Fugacity = pressure * phi / 1 atm.
  For ideal gases, phi = 1.

------------------
End of simulation.
------------------

------------------------------------
Reading input data for simulation 2.
------------------------------------

	USE solution 1
	GAS_PHASE 1
	 fixed_volume
	 volume 1
	 temperature 132
	 CO2(g) 12 # 3%
	 Ng(g) 40
	 H2Sg(g) 0.2 # 500 ppm_v
	 Mth(g) 334
	 H2O(g) 11.7
	SAVE solution 1
	SAVE gas_phase 1
	END
-----------------------------------------
Beginning of batch-reaction calculations.
-----------------------------------------

Reaction step 1.

Using solution 1.	Khuff reservoir: Franco et al., 2009, SAJT.
Using gas phase 1.	

-----------------------------------Gas phase-----------------------------------

Total pressure: 377.73      atmospheres          (Peng-Robinson calculation)
    Gas volume:   1.00e+00 liters
  Molar volume:   9.03e-02 liters/mole
   P * Vm / RT:  1.02635  (Compressibility Factor Z) 

                                                        Moles in gas
                                            ----------------------------------
Component         log P           P    phi     Initial       Final       Delta

CO2(g)             1.06   1.136e+01  0.666   3.455e-01   3.328e-01  -1.270e-02
H2O(g)             1.13   1.362e+01  0.263   3.369e-01   3.992e-01   6.235e-02
H2Sg(g)           -1.08   8.347e-02  0.510   5.759e-03   2.446e-03  -3.313e-03
Mth(g)             2.50   3.145e+02  0.912   9.617e+00   9.217e+00  -4.002e-01
Ng(g)              1.58   3.815e+01  1.229   1.152e+00   1.118e+00  -3.388e-02

-----------------------------Solution composition------------------------------

	Elements           Molality       Moles

	Ba                1.986e-04   1.983e-04
	C                 2.005e-02   2.003e-02
	Ca                4.409e-01   4.404e-01
	Cl                3.987e+00   3.983e+00
	K                 1.866e-01   1.864e-01
	Mg                7.771e-02   7.763e-02
	Mth               4.006e-01   4.002e-01
	Na                2.962e+00   2.958e+00
	Ng                3.392e-02   3.388e-02
	S                 1.290e-03   1.289e-03
	Sg                3.316e-03   3.313e-03
	Sr                1.481e-02   1.479e-02

----------------------------Description of solution----------------------------

                                       pH  =   5.621      Charge balance
                                       pe  =   4.000      Adjusted to redox equilibrium
      Specific Conductance (µS/cm, 132°C)  = 636704
                          Density (g/cm³)  =   1.10313
                               Volume (L)  =   1.12847
                        Viscosity (mPa s)  =   0.37011
                        Activity of water  =   0.851
                 Ionic strength (mol/kgw)  =   4.642e+00
                       Mass of water (kg)  =   9.989e-01
                 Total alkalinity (eq/kg)  =   8.815e-03
                       Total CO2 (mol/kg)  =   2.005e-02
                         Temperature (°C)  = 132.00
                           Pressure (atm)  = 377.73
                  Electrical balance (eq)  =   2.167e-01
 Percent error, 100*(Cat-|An|)/(Cat+|An|)  =   2.64
                               Iterations  =  45
                         Gamma iterations  =   6
                      Osmotic coefficient  =   1.10180
                         Density of water  =   0.95195
                                  Total H  = 1.109010e+02
                                  Total O  = 5.549679e+01

----------------------------Distribution of species----------------------------

                                                    MacInnes  MacInnes
                                MacInnes       Log       Log       Log    mole V
   Species          Molality    Activity  Molality  Activity     Gamma   cm³/mol

   OH-             8.997e-06   1.721e-06    -5.046    -5.764    -0.718    -86.63
   H+              1.444e-06   2.395e-06    -5.841    -5.621     0.220      0.00
   H2O             5.551e+01   8.510e-01     1.744    -0.070     0.000     18.93
Ba            1.986e-04
   Ba+2            1.986e-04   2.970e-05    -3.702    -4.527    -0.825     -4.70
C(4)          2.005e-02
   CO2             1.304e-02   2.549e-02    -1.885    -1.594     0.291    112.97
   HCO3-           6.965e-03   2.362e-03    -2.157    -2.627    -0.470    122.57
   CO3-2           3.081e-05   1.984e-07    -4.511    -6.702    -2.191      3.68
   MgCO3           2.062e-05   2.062e-05    -4.686    -4.686     0.000    -14.87
Ca            4.409e-01
   Ca+2            4.409e-01   1.272e-01    -0.356    -0.896    -0.540    -13.77
Cl            3.987e+00
   Cl-             3.987e+00   2.143e+00     0.601     0.331    -0.270     18.57
K             1.866e-01
   K+              1.866e-01   1.086e-01    -0.729    -0.964    -0.235     12.98
Mg            7.771e-02
   Mg+2            7.767e-02   2.351e-02    -1.110    -1.629    -0.519    -20.33
   MgOH+           2.503e-05   1.232e-05    -4.602    -4.909    -0.308     (0)  
   MgCO3           2.062e-05   2.062e-05    -4.686    -4.686     0.000    -14.87
Mth           4.006e-01
   Mth             4.006e-01   4.006e-01    -0.397    -0.397     0.000     (0)  
Na            2.962e+00
   Na+             2.962e+00   2.637e+00     0.472     0.421    -0.050      2.81
Ng            3.392e-02
   Ng              3.392e-02   3.392e-02    -1.470    -1.470     0.000     (0)  
S(6)          1.290e-03
   SO4-2           1.290e-03   4.153e-06    -2.889    -5.382    -2.492     18.53
   HSO4-           4.049e-08   1.452e-08    -7.393    -7.838    -0.445     42.97
Sg            3.316e-03
   HSg-            1.705e-03   2.472e-04    -2.768    -3.607    -0.839     (0)  
   H2Sg            1.606e-03   2.305e-03    -2.794    -2.637     0.157     (0)  
   Sg-2            5.158e-06   2.742e-09    -5.287    -8.562    -3.274     (0)  
   (H2Sg)2         2.869e-07   5.429e-07    -6.542    -6.265     0.277     36.61
Sr            1.481e-02
   Sr+2            1.481e-02   4.886e-03    -1.829    -2.311    -0.482    -15.00

------------------------------Saturation indices-------------------------------

  Phase               SI** log IAP   log K(405 K, 378 atm)

  Anhydrite        -0.57     -6.28   -5.71  CaSO4
  Aragonite         1.79     -7.60   -9.38  CaCO3
  Arcanite         -5.90     -7.31   -1.41  K2SO4
  Artinite         -2.63     10.63   13.26  Mg2CO3(OH)2:3H2O
  Barite           -0.45     -9.91   -9.46  BaSO4
  Bischofite       -4.67     -1.39    3.28  MgCl2:6H2O
  Bloedite         -9.72    -11.83   -2.11  Na2Mg(SO4)2:4H2O
  Brucite          -4.29    -13.16   -8.87  Mg(OH)2
  Burkeite        -14.63    -14.94   -0.31  Na6CO3(SO4)2
  Calcite           2.40     -7.60  -10.00  CaCO3
  Carnallite       -5.91     -2.02    3.89  KMgCl3:6H2O
  Celestite        -0.49     -7.69   -7.21  SrSO4
  CO2(g)            0.88     -1.59   -2.47  CO2	 Pressure  11.4 atm, phi 0.666
  Dolomite          4.69    -15.93  -20.62  CaMg(CO3)2
  Epsomite         -6.11     -7.50   -1.39  MgSO4:7H2O
  Gaylussite       -3.93    -13.81   -9.88  CaNa2(CO3)2:5H2O
  Glaserite       -10.81    -13.23   -2.43  NaK3(SO4)2
  Glauberite       -3.69    -10.82   -7.13  Na2Ca(SO4)2
  Goergeyite       -7.73    -38.77  -31.03  K2Ca5(SO4)6H2O
  Gypsum           -1.35     -6.42   -5.07  CaSO4:2H2O
  H2O(g)            0.55     -0.07   -0.62  H2O	 Pressure  13.6 atm, phi 0.263
  H2Sg(g)          -1.37     -9.23   -7.86  H2Sg	 Pressure   0.1 atm, phi 0.510
  Halite           -0.78      0.75    1.53  NaCl
  Hexahydrite      -5.66     -7.43   -1.77  MgSO4:6H2O
  Huntite           6.75      6.19   -0.55  CaMg3(CO3)4
  Kainite          -7.23     -7.85   -0.62  KMgClSO4:3H2O
  Kalicinite       -3.27    -13.29  -10.02  KHCO3
  Kieserite        -4.29     -7.08   -2.79  MgSO4:H2O
  Labile_S         -9.38    -15.50   -6.12  Na4Ca(SO4)3:2H2O
  Leonhardite      -6.04     -7.29   -1.25  MgSO4:4H2O
  Leonite         -10.04    -14.60   -4.56  K2Mg(SO4)2:4H2O
  Magnesite        -0.43     -8.33   -7.90  MgCO3
  MgCl2_2H2O       -8.84     -1.11    7.73  MgCl2:2H2O
  MgCl2_4H2O       -5.62     -1.25    4.37  MgCl2:4H2O
  Mirabilite       -5.43     -5.24    0.19  Na2SO4:10H2O
  Misenite        -67.15    -79.11  -11.96  K8H6(SO4)7
  Mth(g)            2.46     -0.40   -2.85  Mth	 Pressure 314.5 atm, phi 0.912
  Nahcolite        -1.31    -11.90  -10.59  NaHCO3
  Natron           -4.76     -6.56   -1.80  Na2CO3:10H2O
  Nesquehonite     -3.18     -8.54   -5.36  MgCO3:3H2O
  Ng(g)             1.67     -1.47   -3.14  Ng	 Pressure  38.1 atm, phi 1.229
  Pentahydrite     -5.62     -7.36   -1.74  MgSO4:5H2O
  Pirssonite       -4.18    -13.60   -9.42  Na2Ca(CO3)2:2H2O
  Polyhalite      -13.90    -27.02  -13.11  K2MgCa2(SO4)4:2H2O
  Portlandite      -8.15    -12.42   -4.27  Ca(OH)2
  Schoenite        -9.64    -14.74   -5.10  K2Mg(SO4)2:6H2O
  Strontianite      1.32     -9.01  -10.34  SrCO3
  Sylvite          -2.03     -0.63    1.40  KCl
  Syngenite        -6.01    -13.66   -7.65  K2Ca(SO4)2:H2O
  Thenardite       -3.69     -4.54   -0.85  Na2SO4
  Trona            -6.78    -17.90  -11.13  Na3H(CO3)2:2H2O

**For a gas, SI = log10(fugacity). Fugacity = pressure * phi / 1 atm.
  For ideal gases, phi = 1.

------------------
End of simulation.
------------------

------------------------------------
Reading input data for simulation 3.
------------------------------------

	USE solution 1
	REACTION_TEMPERATURE
	 132 30 in 10
	USE GAS_PHASE 1
	REACTION 1
	CO2(g)  0.3282 H2Sg(g) 0.004922 Mth(g)  9.552 Ng(g)   1.146
	 -1. in 1
	USER_GRAPH
	 -headings temp calcite strontianite anhydrite gyps halite pressure
	 -axis_titles "Temperature / oC" "SI" "Pressure / atm"
	 10 graph_x tc
	 20 graph_y si("Calcite"), si("Strontianite"), si("Anhydrite"), si("Gypsum"), si("Halite")
	 30 graph_sy pressure
	END
-----------------------------------------
Beginning of batch-reaction calculations.
-----------------------------------------

Reaction step 1.

Using solution 1.	Solution after simulation 2.
Using gas phase 1.	Gas phase after simulation 2.
Using temperature 1.	
Using reaction 1.	

Reaction 1.	

	 -1.000e+00 moles of the following reaction have been added:

	                 Relative
	Reactant            moles

	CO2(g)               0.32820
	H2Sg(g)              0.00492
	Mth(g)               9.55200
	Ng(g)                1.14600

	                 Relative
	Element             moles
	C                    0.32820
	H                    0.00984
	Mth                  9.55200
	Ng                   1.14600
	O                    0.65640
	Sg                   0.00492

-----------------------------------Gas phase-----------------------------------

Total pressure:  5.77      atmospheres          (Peng-Robinson calculation)
    Gas volume:   1.00e+00 liters
  Molar volume:   5.64e+00 liters/mole
   P * Vm / RT:  0.97999  (Compressibility Factor Z) 

                                                        Moles in gas
                                            ----------------------------------
Component         log P           P    phi     Initial       Final       Delta

CO2(g)            -0.32   4.789e-01  0.994   3.328e-01   1.470e-02  -3.181e-01
H2O(g)             0.48   3.042e+00  0.963   3.992e-01   9.336e-02  -3.059e-01
H2Sg(g)           -2.51   3.070e-03  0.987   2.446e-03   9.421e-05  -2.352e-03
Mth(g)             0.31   2.065e+00  1.000   9.217e+00   6.337e-02  -9.154e+00
Ng(g)             -0.73   1.852e-01  1.011   1.118e+00   5.684e-03  -1.112e+00

-----------------------------Solution composition------------------------------

	Elements           Molality       Moles

	Ba                1.975e-04   1.983e-04
	C                 9.922e-03   9.965e-03
	Ca                4.385e-01   4.404e-01
	Cl                3.965e+00   3.983e+00
	K                 1.856e-01   1.864e-01
	Mg                7.729e-02   7.763e-02
	Mth               1.993e-03   2.002e-03
	Na                2.945e+00   2.958e+00
	Ng                9.682e-05   9.724e-05
	S                 1.283e-03   1.289e-03
	Sg                7.395e-04   7.427e-04
	Sr                1.473e-02   1.479e-02

----------------------------Description of solution----------------------------

                                       pH  =   6.485      Charge balance
                                       pe  =   4.000      Adjusted to redox equilibrium
      Specific Conductance (µS/cm, 132°C)  = 653529
                          Density (g/cm³)  =   1.08077
                               Volume (L)  =   1.14965
                        Viscosity (mPa s)  =   0.35309
                        Activity of water  =   0.860
                 Ionic strength (mol/kgw)  =   4.616e+00
                       Mass of water (kg)  =   1.004e+00
                 Total alkalinity (eq/kg)  =   8.767e-03
                       Total CO2 (mol/kg)  =   9.922e-03
                         Temperature (°C)  = 132.00
                           Pressure (atm)  =  5.77
                  Electrical balance (eq)  =   2.167e-01
 Percent error, 100*(Cat-|An|)/(Cat+|An|)  =   2.64
                               Iterations  = 144
                         Gamma iterations  =   3
                      Osmotic coefficient  =   1.09368
                         Density of water  =   0.93329
                                  Total H  = 1.115076e+02
                                  Total O  = 5.578255e+01

----------------------------Distribution of species----------------------------

                                                    MacInnes  MacInnes
                                MacInnes       Log       Log       Log    mole V
   Species          Molality    Activity  Molality  Activity     Gamma   cm³/mol

   OH-             2.068e-05   3.907e-06    -4.684    -5.408    -0.724    -85.70
   H+              2.026e-07   3.274e-07    -6.693    -6.485     0.208      0.00
   H2O             5.551e+01   8.602e-01     1.744    -0.065     0.000     19.30
Ba            1.975e-04
   Ba+2            1.975e-04   2.653e-05    -3.705    -4.576    -0.872     -6.66
C(4)          9.922e-03
   HCO3-           7.683e-03   2.563e-03    -2.114    -2.591    -0.477    123.50
   CO2             2.128e-03   4.152e-03    -2.672    -2.382     0.290    112.97
   CO3-2           7.205e-05   4.169e-07    -4.142    -6.380    -2.238     -0.55
   MgCO3           3.901e-05   3.901e-05    -4.409    -4.409     0.000    -16.98
Ca            4.385e-01
   Ca+2            4.385e-01   1.127e-01    -0.358    -0.948    -0.590    -16.02
Cl            3.965e+00
   Cl-             3.965e+00   2.094e+00     0.598     0.321    -0.277     18.36
K             1.856e-01
   K+              1.856e-01   1.058e-01    -0.731    -0.975    -0.244     12.53
Mg            7.729e-02
   Mg+2            7.708e-02   2.077e-02    -1.113    -1.683    -0.569    -22.99
   MgOH+           1.684e-04   8.177e-05    -3.774    -4.087    -0.314     (0)  
   MgCO3           3.901e-05   3.901e-05    -4.409    -4.409     0.000    -16.98
Mth           1.993e-03
   Mth             1.993e-03   1.993e-03    -2.700    -2.700     0.000     (0)  
Na            2.945e+00
   Na+             2.945e+00   2.561e+00     0.469     0.408    -0.061      1.99
Ng            9.682e-05
   Ng              9.682e-05   9.682e-05    -4.014    -4.014     0.000     (0)  
S(6)          1.283e-03
   SO4-2           1.283e-03   3.733e-06    -2.892    -5.428    -2.536     21.26
   HSO4-           6.644e-09   2.345e-09    -8.178    -8.630    -0.452     44.22
Sg            7.395e-04
   HSg-            6.423e-04   9.192e-05    -3.192    -4.037    -0.844     (0)  
   H2Sg            8.172e-05   1.171e-04    -4.088    -3.931     0.156     (0)  
   Sg-2            1.546e-05   7.458e-09    -4.811    -8.127    -3.317     (0)  
   (H2Sg)2         1.124e-09   2.117e-09    -8.949    -8.674     0.275     19.38
Sr            1.473e-02
   Sr+2            1.473e-02   4.331e-03    -1.832    -2.363    -0.532    -17.40

------------------------------Saturation indices-------------------------------

  Phase               SI** log IAP   log K(405 K,   6 atm)

  Anhydrite        -0.47     -6.38   -5.91  CaSO4
  Aragonite         2.27     -7.33   -9.60  CaCO3
  Arcanite         -5.87     -7.38   -1.51  K2SO4
  Artinite         -0.47     13.17   13.64  Mg2CO3(OH)2:3H2O
  Barite           -0.36    -10.00   -9.65  BaSO4
  Bischofite       -4.73     -1.43    3.30  MgCl2:6H2O
  Bloedite         -9.64    -11.98   -2.34  Na2Mg(SO4)2:4H2O
  Brucite          -2.57    -12.50   -9.93  Mg(OH)2
  Burkeite        -14.02    -14.79   -0.77  Na6CO3(SO4)2
  Calcite           2.48     -7.33   -9.81  CaCO3
  Carnallite       -5.92     -2.09    3.83  KMgCl3:6H2O
  Celestite        -0.38     -7.79   -7.41  SrSO4
  CO2(g)           -0.32     -2.38   -2.06  CO2	 Pressure   0.5 atm, phi 0.994
  Dolomite          5.68    -15.39  -21.07  CaMg(CO3)2
  Epsomite         -6.09     -7.57   -1.47  MgSO4:7H2O
  Gaylussite       -3.79    -13.22   -9.43  CaNa2(CO3)2:5H2O
  Glaserite       -10.73    -13.37   -2.64  NaK3(SO4)2
  Glauberite       -3.51    -10.99   -7.47  Na2Ca(SO4)2
  Goergeyite       -7.28    -39.32  -32.05  K2Ca5(SO4)6H2O
  Gypsum           -1.28     -6.51   -5.22  CaSO4:2H2O
  H2O(g)            0.47     -0.07   -0.53  H2O	 Pressure   3.0 atm, phi 0.963
  H2Sg(g)          -2.52    -10.52   -8.00  H2Sg	 Pressure   0.0 atm, phi 0.987
  Halite           -0.77      0.73    1.50  NaCl
  Hexahydrite      -5.64     -7.50   -1.87  MgSO4:6H2O
  Huntite           8.75      9.58    0.83  CaMg3(CO3)4
  Kainite          -7.76     -7.96   -0.20  KMgClSO4:3H2O
  Kalicinite       -3.90    -13.84   -9.94  KHCO3
  Kieserite        -4.21     -7.18   -2.97  MgSO4:H2O
  Labile_S        -10.05    -15.73   -5.68  Na4Ca(SO4)3:2H2O
  Leonhardite      -6.48     -7.37   -0.89  MgSO4:4H2O
  Leonite         -10.76    -14.75   -3.99  K2Mg(SO4)2:4H2O
  Magnesite         0.05     -8.06   -8.12  MgCO3
  MgCl2_2H2O       -9.17     -1.17    8.00  MgCl2:2H2O
  MgCl2_4H2O       -6.12     -1.30    4.82  MgCl2:4H2O
  Mirabilite       -5.45     -5.27    0.18  Na2SO4:10H2O
  Misenite        -73.89    -84.71  -10.82  K8H6(SO4)7
  Mth(g)            0.31     -2.70   -3.02  Mth	 Pressure   2.1 atm, phi 1.000
  Nahcolite        -1.72    -12.46  -10.74  NaHCO3
  Natron           -5.38     -6.22   -0.84  Na2CO3:10H2O
  Nesquehonite     -3.09     -8.26   -5.17  MgCO3:3H2O
  Ng(g)            -0.73     -4.01   -3.29  Ng	 Pressure   0.2 atm, phi 1.011
  Pentahydrite     -6.15     -7.44   -1.29  MgSO4:5H2O
  Pirssonite       -3.79    -13.02   -9.24  Na2Ca(CO3)2:2H2O
  Polyhalite      -13.64    -27.37  -13.74  K2MgCa2(SO4)4:2H2O
  Portlandite      -6.59    -11.76   -5.18  Ca(OH)2
  Schoenite       -10.54    -14.88   -4.34  K2Mg(SO4)2:6H2O
  Strontianite      1.65     -8.74  -10.39  SrCO3
  Sylvite          -2.02     -0.65    1.37  KCl
  Syngenite        -5.88    -13.82   -7.94  K2Ca(SO4)2:H2O
  Thenardite       -3.62     -4.61   -0.99  Na2SO4
  Trona            -6.77    -18.15  -11.38  Na3H(CO3)2:2H2O

**For a gas, SI = log10(fugacity). Fugacity = pressure * phi / 1 atm.
  For ideal gases, phi = 1.

Reaction step 2.

Using solution 1.	Solution after simulation 2.
Using gas phase 1.	Gas phase after simulation 2.
Using temperature 1.	
Using reaction 1.	

Reaction 1.	

	 -1.000e+00 moles of the following reaction have been added:

	                 Relative
	Reactant            moles

	CO2(g)               0.32820
	H2Sg(g)              0.00492
	Mth(g)               9.55200
	Ng(g)                1.14600

	                 Relative
	Element             moles
	C                    0.32820
	H                    0.00984
	Mth                  9.55200
	Ng                   1.14600
	O                    0.65640
	Sg                   0.00492

-----------------------------------Gas phase-----------------------------------

Total pressure:  4.74      atmospheres          (Peng-Robinson calculation)
    Gas volume:   1.00e+00 liters
  Molar volume:   6.71e+00 liters/mole
   P * Vm / RT:  0.98498  (Compressibility Factor Z) 

                                                        Moles in gas
                                            ----------------------------------
Component         log P           P    phi     Initial       Final       Delta

CO2(g)            -0.33   4.636e-01  0.993   3.328e-01   1.456e-02  -3.183e-01
H2O(g)             0.32   2.072e+00  0.969   3.992e-01   6.508e-02  -3.342e-01
H2Sg(g)           -2.47   3.362e-03  0.987   2.446e-03   1.056e-04  -2.341e-03
Mth(g)             0.31   2.022e+00  0.998   9.217e+00   6.352e-02  -9.154e+00
Ng(g)             -0.74   1.812e-01  1.007   1.118e+00   5.692e-03  -1.112e+00

-----------------------------Solution composition------------------------------

	Elements           Molality       Moles

	Ba                1.974e-04   1.983e-04
	C                 1.005e-02   1.010e-02
	Ca                4.383e-01   4.404e-01
	Cl                3.963e+00   3.983e+00
	K                 1.855e-01   1.864e-01
	Mg                7.725e-02   7.763e-02
	Mth               1.847e-03   1.856e-03
	Na                2.944e+00   2.958e+00
	Ng                8.929e-05   8.973e-05
	S                 1.282e-03   1.289e-03
	Sg                7.277e-04   7.313e-04
	Sr                1.472e-02   1.479e-02

----------------------------Description of solution----------------------------

                                       pH  =   6.431      Charge balance
                                       pe  =   4.000      Adjusted to redox equilibrium
      Specific Conductance (µS/cm, 121°C)  = 610746
                          Density (g/cm³)  =   1.08906
                               Volume (L)  =   1.14137
                        Viscosity (mPa s)  =   0.38771
                        Activity of water  =   0.859
                 Ionic strength (mol/kgw)  =   4.614e+00
                       Mass of water (kg)  =   1.005e+00
                 Total alkalinity (eq/kg)  =   8.763e-03
                       Total CO2 (mol/kg)  =   1.005e-02
                         Temperature (°C)  = 120.67
                           Pressure (atm)  =  4.74
                  Electrical balance (eq)  =   2.167e-01
 Percent error, 100*(Cat-|An|)/(Cat+|An|)  =   2.64
                               Iterations  = 144
                         Gamma iterations  =   3
                      Osmotic coefficient  =   1.10856
                         Density of water  =   0.94271
                                  Total H  = 1.115641e+02
                                  Total O  = 5.581110e+01

----------------------------Distribution of species----------------------------

                                                    MacInnes  MacInnes
                                MacInnes       Log       Log       Log    mole V
   Species          Molality    Activity  Molality  Activity     Gamma   cm³/mol

   OH-             1.300e-05   2.503e-06    -4.886    -5.602    -0.716    -86.54
   H+              2.127e-07   3.709e-07    -6.672    -6.431     0.241      0.00
   H2O             5.551e+01   8.585e-01     1.744    -0.066     0.000     19.11
Ba            1.974e-04
   Ba+2            1.974e-04   3.060e-05    -3.705    -4.514    -0.810     -6.79
C(4)          1.005e-02
   HCO3-           7.776e-03   2.751e-03    -2.109    -2.561    -0.451    122.66
   CO2             2.161e-03   4.215e-03    -2.665    -2.375     0.290    112.97
   CO3-2           7.283e-05   4.459e-07    -4.138    -6.351    -2.213      1.22
   MgCO3           4.171e-05   4.171e-05    -4.380    -4.380     0.000    -17.01
Ca            4.383e-01
   Ca+2            4.383e-01   1.343e-01    -0.358    -0.872    -0.514    -15.55
Cl            3.963e+00
   Cl-             3.963e+00   2.166e+00     0.598     0.336    -0.262     18.85
K             1.855e-01
   K+              1.855e-01   1.104e-01    -0.732    -0.957    -0.225     12.37
Mg            7.725e-02
   Mg+2            7.711e-02   2.490e-02    -1.113    -1.604    -0.491    -22.28
   MgOH+           9.634e-05   4.976e-05    -4.016    -4.303    -0.287     (0)  
   MgCO3           4.171e-05   4.171e-05    -4.380    -4.380     0.000    -17.01
Mth           1.847e-03
   Mth             1.847e-03   1.847e-03    -2.734    -2.734     0.000     (0)  
Na            2.944e+00
   Na+             2.944e+00   2.700e+00     0.469     0.431    -0.038      1.90
Ng            8.929e-05
   Ng              8.929e-05   8.929e-05    -4.049    -4.049     0.000     (0)  
S(6)          1.282e-03
   SO4-2           1.282e-03   4.474e-06    -2.892    -5.349    -2.457     21.94
   HSO4-           6.076e-09   2.233e-09    -8.216    -8.651    -0.435     44.19
Sg            7.277e-04
   HSg-            6.336e-04   9.441e-05    -3.198    -4.025    -0.827     (0)  
   H2Sg            8.665e-05   1.250e-04    -4.062    -3.903     0.159     (0)  
   Sg-2            7.456e-06   4.388e-09    -5.128    -8.358    -3.230     (0)  
   (H2Sg)2         1.339e-09   2.417e-09    -8.873    -8.617     0.256     21.39
Sr            1.472e-02
   Sr+2            1.472e-02   4.978e-03    -1.832    -2.303    -0.471    -16.87

------------------------------Saturation indices-------------------------------

  Phase               SI** log IAP   log K(393 K,   5 atm)

  Anhydrite        -0.51     -6.22   -5.71  CaSO4
  Aragonite         2.17     -7.22   -9.39  CaCO3
  Arcanite         -5.78     -7.26   -1.48  K2SO4
  Artinite         -0.93     13.19   14.12  Mg2CO3(OH)2:3H2O
  Barite           -0.26     -9.86   -9.60  BaSO4
  Bischofite       -4.76     -1.33    3.43  MgCl2:6H2O
  Bloedite         -9.36    -11.70   -2.34  Na2Mg(SO4)2:4H2O
  Brucite          -2.80    -12.81  -10.01  Mg(OH)2
  Burkeite        -13.69    -14.46   -0.77  Na6CO3(SO4)2
  Calcite           2.38     -7.22   -9.60  CaCO3
  Carnallite       -5.92     -1.95    3.97  KMgCl3:6H2O
  Celestite        -0.33     -7.65   -7.32  SrSO4
  CO2(g)           -0.34     -2.38   -2.04  CO2	 Pressure   0.5 atm, phi 0.993
  Dolomite          5.37    -15.18  -20.55  CaMg(CO3)2
  Epsomite         -5.93     -7.42   -1.49  MgSO4:7H2O
  Gaylussite       -3.62    -13.04   -9.43  CaNa2(CO3)2:5H2O
  Glaserite       -10.40    -13.14   -2.74  NaK3(SO4)2
  Glauberite       -3.53    -10.71   -7.18  Na2Ca(SO4)2
  Goergeyite       -7.21    -38.44  -31.23  K2Ca5(SO4)6H2O
  Gypsum           -1.23     -6.35   -5.12  CaSO4:2H2O
  H2O(g)            0.30     -0.07   -0.37  H2O	 Pressure   2.1 atm, phi 0.969
  H2Sg(g)          -2.48    -10.46   -7.98  H2Sg	 Pressure   0.0 atm, phi 0.987
  Halite           -0.77      0.77    1.54  NaCl
  Hexahydrite      -5.52     -7.35   -1.83  MgSO4:6H2O
  Huntite           8.06      9.80    1.74  CaMg3(CO3)4
  Kainite          -7.58     -7.77   -0.20  KMgClSO4:3H2O
  Kalicinite       -3.80    -13.74   -9.94  KHCO3
  Kieserite        -4.38     -7.02   -2.64  MgSO4:H2O
  Labile_S         -9.65    -15.33   -5.68  Na4Ca(SO4)3:2H2O
  Leonhardite      -6.33     -7.22   -0.89  MgSO4:4H2O
  Leonite         -10.50    -14.48   -3.99  K2Mg(SO4)2:4H2O
  Magnesite         0.14     -7.95   -8.09  MgCO3
  MgCl2_2H2O       -9.59     -1.06    8.52  MgCl2:2H2O
  MgCl2_4H2O       -6.25     -1.20    5.05  MgCl2:4H2O
  Mirabilite       -5.43     -5.15    0.28  Na2SO4:10H2O
  Misenite        -72.87    -83.68  -10.82  K8H6(SO4)7
  Mth(g)            0.31     -2.73   -3.04  Mth	 Pressure   2.0 atm, phi 0.998
  Nahcolite        -1.61    -12.35  -10.74  NaHCO3
  Natron           -5.32     -6.15   -0.83  Na2CO3:10H2O
  Nesquehonite     -2.98     -8.15   -5.17  MgCO3:3H2O
  Ng(g)            -0.74     -4.05   -3.31  Ng	 Pressure   0.2 atm, phi 1.007
  Pentahydrite     -5.99     -7.28   -1.29  MgSO4:5H2O
  Pirssonite       -3.61    -12.84   -9.24  Na2Ca(CO3)2:2H2O
  Polyhalite      -13.05    -26.79  -13.74  K2MgCa2(SO4)4:2H2O
  Portlandite      -6.89    -12.08   -5.18  Ca(OH)2
  Schoenite       -10.28    -14.61   -4.34  K2Mg(SO4)2:6H2O
  Strontianite      1.56     -8.65  -10.21  SrCO3
  Sylvite          -1.98     -0.62    1.36  KCl
  Syngenite        -5.73    -13.55   -7.82  K2Ca(SO4)2:H2O
  Thenardite       -3.60     -4.49   -0.89  Na2SO4
  Trona            -6.59    -17.97  -11.38  Na3H(CO3)2:2H2O

**For a gas, SI = log10(fugacity). Fugacity = pressure * phi / 1 atm.
  For ideal gases, phi = 1.

Reaction step 3.

Using solution 1.	Solution after simulation 2.
Using gas phase 1.	Gas phase after simulation 2.
Using temperature 1.	
Using reaction 1.	

Reaction 1.	

	 -1.000e+00 moles of the following reaction have been added:

	                 Relative
	Reactant            moles

	CO2(g)               0.32820
	H2Sg(g)              0.00492
	Mth(g)               9.55200
	Ng(g)                1.14600

	                 Relative
	Element             moles
	C                    0.32820
	H                    0.00984
	Mth                  9.55200
	Ng                   1.14600
	O                    0.65640
	Sg                   0.00492

-----------------------------------Gas phase-----------------------------------

Total pressure:  3.98      atmospheres          (Peng-Robinson calculation)
    Gas volume:   1.00e+00 liters
  Molar volume:   7.79e+00 liters/mole
   P * Vm / RT:  0.98859  (Compressibility Factor Z) 

                                                        Moles in gas
                                            ----------------------------------
Component         log P           P    phi     Initial       Final       Delta

CO2(g)            -0.35   4.477e-01  0.993   3.328e-01   1.443e-02  -3.184e-01
H2O(g)             0.14   1.382e+00  0.973   3.992e-01   4.454e-02  -3.547e-01
H2Sg(g)           -2.43   3.682e-03  0.987   2.446e-03   1.187e-04  -2.327e-03
Mth(g)             0.30   1.974e+00  0.998   9.217e+00   6.363e-02  -9.154e+00
Ng(g)             -0.75   1.768e-01  1.005   1.118e+00   5.697e-03  -1.112e+00

-----------------------------Solution composition------------------------------

	Elements           Molality       Moles

	Ba                1.973e-04   1.983e-04
	C                 1.018e-02   1.024e-02
	Ca                4.381e-01   4.404e-01
	Cl                3.962e+00   3.983e+00
	K                 1.854e-01   1.864e-01
	Mg                7.722e-02   7.763e-02
	Mth               1.734e-03   1.743e-03
	Na                2.943e+00   2.958e+00
	Ng                8.341e-05   8.385e-05
	S                 1.282e-03   1.289e-03
	Sg                7.145e-04   7.182e-04
	Sr                1.472e-02   1.479e-02

----------------------------Description of solution----------------------------

                                       pH  =   6.376      Charge balance
                                       pe  =   4.000      Adjusted to redox equilibrium
      Specific Conductance (µS/cm, 109°C)  = 566164
                          Density (g/cm³)  =   1.09701
                               Volume (L)  =   1.13344
                        Viscosity (mPa s)  =   0.42939
                        Activity of water  =   0.857
                 Ionic strength (mol/kgw)  =   4.612e+00
                       Mass of water (kg)  =   1.005e+00
                 Total alkalinity (eq/kg)  =   8.759e-03
                       Total CO2 (mol/kg)  =   1.018e-02
                         Temperature (°C)  = 109.33
                           Pressure (atm)  =  3.98
                  Electrical balance (eq)  =   2.167e-01
 Percent error, 100*(Cat-|An|)/(Cat+|An|)  =   2.64
                               Iterations  = 144
                         Gamma iterations  =   3
                      Osmotic coefficient  =   1.12221
                         Density of water  =   0.95158
                                  Total H  = 1.116052e+02
                                  Total O  = 5.583191e+01

----------------------------Distribution of species----------------------------

                                                    MacInnes  MacInnes
                                MacInnes       Log       Log       Log    mole V
   Species          Molality    Activity  Molality  Activity     Gamma   cm³/mol

   OH-             7.884e-06   1.542e-06    -5.103    -5.812    -0.709    -87.24
   H+              2.243e-07   4.210e-07    -6.649    -6.376     0.273      0.00
   H2O             5.551e+01   8.570e-01     1.744    -0.067     0.000     18.93
Ba            1.973e-04
   Ba+2            1.973e-04   3.511e-05    -3.705    -4.455    -0.750     -6.87
C(4)          1.018e-02
   HCO3-           7.844e-03   2.933e-03    -2.105    -2.533    -0.427    121.96
   CO2             2.223e-03   4.337e-03    -2.653    -2.363     0.290    112.97
   CO3-2           7.234e-05   4.625e-07    -4.141    -6.335    -2.194      2.74
   MgCO3           4.299e-05   4.299e-05    -4.367    -4.367     0.000    -17.03
Ca            4.381e-01
   Ca+2            4.381e-01   1.585e-01    -0.358    -0.800    -0.442    -15.14
Cl            3.962e+00
   Cl-             3.962e+00   2.231e+00     0.598     0.349    -0.249     19.26
K             1.854e-01
   K+              1.854e-01   1.148e-01    -0.732    -0.940    -0.208     12.23
Mg            7.722e-02
   Mg+2            7.713e-02   2.968e-02    -1.113    -1.528    -0.415    -21.63
   MgOH+           5.310e-05   2.910e-05    -4.275    -4.536    -0.261     (0)  
   MgCO3           4.299e-05   4.299e-05    -4.367    -4.367     0.000    -17.03
Mth           1.734e-03
   Mth             1.734e-03   1.734e-03    -2.761    -2.761     0.000     (0)  
Na            2.943e+00
   Na+             2.943e+00   2.834e+00     0.469     0.452    -0.016      1.81
Ng            8.341e-05
   Ng              8.341e-05   8.341e-05    -4.079    -4.079     0.000     (0)  
S(6)          1.282e-03
   SO4-2           1.282e-03   5.287e-06    -2.892    -5.277    -2.385     22.65
   HSO4-           5.537e-09   2.112e-09    -8.257    -8.675    -0.419     44.14
Sg            7.145e-04
   HSg-            6.174e-04   9.552e-05    -3.209    -4.020    -0.811     (0)  
   H2Sg            9.355e-05   1.359e-04    -4.029    -3.867     0.162     (0)  
   Sg-2            3.492e-06   2.474e-09    -5.457    -8.607    -3.150     (0)  
   (H2Sg)2         1.622e-09   2.800e-09    -8.790    -8.553     0.237     23.11
Sr            1.472e-02
   Sr+2            1.472e-02   5.655e-03    -1.832    -2.248    -0.415    -16.34

------------------------------Saturation indices-------------------------------

  Phase               SI** log IAP   log K(382 K,   4 atm)

  Anhydrite        -0.55     -6.08   -5.52  CaSO4
  Aragonite         2.06     -7.13   -9.20  CaCO3
  Arcanite         -5.69     -7.16   -1.47  K2SO4
  Artinite         -1.43     13.20   14.64  Mg2CO3(OH)2:3H2O
  Barite           -0.16     -9.73   -9.57  BaSO4
  Bischofite       -4.80     -1.23    3.57  MgCl2:6H2O
  Bloedite         -9.10    -11.44   -2.35  Na2Mg(SO4)2:4H2O
  Brucite          -3.06    -13.15  -10.09  Mg(OH)2
  Burkeite        -13.41    -14.17   -0.77  Na6CO3(SO4)2
  Calcite           2.28     -7.13   -9.41  CaCO3
  Carnallite       -5.91     -1.82    4.09  KMgCl3:6H2O
  Celestite        -0.30     -7.52   -7.22  SrSO4
  CO2(g)           -0.35     -2.36   -2.01  CO2	 Pressure   0.4 atm, phi 0.993
  Dolomite          5.05    -15.00  -20.05  CaMg(CO3)2
  Epsomite         -5.77     -7.27   -1.50  MgSO4:7H2O
  Gaylussite       -3.48    -12.90   -9.42  CaNa2(CO3)2:5H2O
  Glaserite       -10.09    -12.92   -2.84  NaK3(SO4)2
  Glauberite       -3.56    -10.45   -6.89  Na2Ca(SO4)2
  Goergeyite       -7.11    -37.61  -30.50  K2Ca5(SO4)6H2O
  Gypsum           -1.18     -6.21   -5.03  CaSO4:2H2O
  H2O(g)            0.13     -0.07   -0.20  H2O	 Pressure   1.4 atm, phi 0.973
  H2Sg(g)          -2.44    -10.40   -7.96  H2Sg	 Pressure   0.0 atm, phi 0.987
  Halite           -0.76      0.80    1.56  NaCl
  Hexahydrite      -5.40     -7.21   -1.80  MgSO4:6H2O
  Huntite           7.34      9.99    2.65  CaMg3(CO3)4
  Kainite          -7.40     -7.60   -0.20  KMgClSO4:3H2O
  Kalicinite       -3.71    -13.65   -9.94  KHCO3
  Kieserite        -4.56     -6.87   -2.32  MgSO4:H2O
  Labile_S         -9.28    -14.95   -5.68  Na4Ca(SO4)3:2H2O
  Leonhardite      -6.18     -7.07   -0.89  MgSO4:4H2O
  Leonite         -10.24    -14.23   -3.98  K2Mg(SO4)2:4H2O
  Magnesite         0.21     -7.86   -8.07  MgCO3
  MgCl2_2H2O      -10.04     -0.96    9.08  MgCl2:2H2O
  MgCl2_4H2O       -6.38     -1.10    5.28  MgCl2:4H2O
  Mirabilite       -5.37     -5.04    0.33  Na2SO4:10H2O
  Misenite        -71.89    -82.71  -10.82  K8H6(SO4)7
  Mth(g)            0.29     -2.76   -3.06  Mth	 Pressure   2.0 atm, phi 0.998
  Nahcolite        -1.52    -12.26  -10.74  NaHCO3
  Natron           -5.27     -6.10   -0.83  Na2CO3:10H2O
  Nesquehonite     -2.89     -8.06   -5.17  MgCO3:3H2O
  Ng(g)            -0.75     -4.08   -3.33  Ng	 Pressure   0.2 atm, phi 1.005
  Pentahydrite     -5.85     -7.14   -1.29  MgSO4:5H2O
  Pirssonite       -3.46    -12.70   -9.24  Na2Ca(CO3)2:2H2O
  Polyhalite      -12.51    -26.25  -13.74  K2MgCa2(SO4)4:2H2O
  Portlandite      -7.24    -12.42   -5.18  Ca(OH)2
  Schoenite       -10.03    -14.36   -4.33  K2Mg(SO4)2:6H2O
  Strontianite      1.46     -8.58  -10.04  SrCO3
  Sylvite          -1.94     -0.59    1.35  KCl
  Syngenite        -5.61    -13.30   -7.69  K2Ca(SO4)2:H2O
  Thenardite       -3.58     -4.37   -0.79  Na2SO4
  Trona            -6.44    -17.82  -11.38  Na3H(CO3)2:2H2O

**For a gas, SI = log10(fugacity). Fugacity = pressure * phi / 1 atm.
  For ideal gases, phi = 1.

Reaction step 4.

Using solution 1.	Solution after simulation 2.
Using gas phase 1.	Gas phase after simulation 2.
Using temperature 1.	
Using reaction 1.	

Reaction 1.	

	 -1.000e+00 moles of the following reaction have been added:

	                 Relative
	Reactant            moles

	CO2(g)               0.32820
	H2Sg(g)              0.00492
	Mth(g)               9.55200
	Ng(g)                1.14600

	                 Relative
	Element             moles
	C                    0.32820
	H                    0.00984
	Mth                  9.55200
	Ng                   1.14600
	O                    0.65640
	Sg                   0.00492

-----------------------------------Gas phase-----------------------------------

Total pressure:  3.43      atmospheres          (Peng-Robinson calculation)
    Gas volume:   1.00e+00 liters
  Molar volume:   8.80e+00 liters/mole
   P * Vm / RT:  0.99111  (Compressibility Factor Z) 

                                                        Moles in gas
                                            ----------------------------------
Component         log P           P    phi     Initial       Final       Delta

CO2(g)            -0.37   4.308e-01  0.992   3.328e-01   1.427e-02  -3.186e-01
H2O(g)            -0.05   9.009e-01  0.976   3.992e-01   2.985e-02  -3.694e-01
H2Sg(g)           -2.40   4.024e-03  0.988   2.446e-03   1.333e-04  -2.313e-03
Mth(g)             0.28   1.923e+00  0.997   9.217e+00   6.371e-02  -9.154e+00
Ng(g)             -0.76   1.721e-01  1.003   1.118e+00   5.702e-03  -1.112e+00

-----------------------------Solution composition------------------------------

	Elements           Molality       Moles

	Ba                1.972e-04   1.983e-04
	C                 1.033e-02   1.039e-02
	Ca                4.380e-01   4.404e-01
	Cl                3.961e+00   3.983e+00
	K                 1.854e-01   1.864e-01
	Mg                7.720e-02   7.763e-02
	Mth               1.654e-03   1.663e-03
	Na                2.942e+00   2.958e+00
	Ng                7.906e-05   7.949e-05
	S                 1.282e-03   1.289e-03
	Sg                6.997e-04   7.036e-04
	Sr                1.471e-02   1.479e-02

----------------------------Description of solution----------------------------

                                       pH  =   6.321      Charge balance
                                       pe  =   4.000      Adjusted to redox equilibrium
      Specific Conductance (µS/cm,  98°C)  = 520078
                          Density (g/cm³)  =   1.10462
                               Volume (L)  =   1.12587
                        Viscosity (mPa s)  =   0.48017
                        Activity of water  =   0.856
                 Ionic strength (mol/kgw)  =   4.611e+00
                       Mass of water (kg)  =   1.006e+00
                 Total alkalinity (eq/kg)  =   8.757e-03
                       Total CO2 (mol/kg)  =   1.033e-02
                         Temperature (°C)  =  98.00
                           Pressure (atm)  =  3.43
                  Electrical balance (eq)  =   2.167e-01
 Percent error, 100*(Cat-|An|)/(Cat+|An|)  =   2.64
                               Iterations  = 145
                         Gamma iterations  =   3
                      Osmotic coefficient  =   1.13457
                         Density of water  =   0.95989
                                  Total H  = 1.116346e+02
                                  Total O  = 5.584691e+01

----------------------------Distribution of species----------------------------

                                                    MacInnes  MacInnes
                                MacInnes       Log       Log       Log    mole V
   Species          Molality    Activity  Molality  Activity     Gamma   cm³/mol

   OH-             4.608e-06   9.126e-07    -5.337    -6.040    -0.703    -87.83
   H+              2.366e-07   4.771e-07    -6.626    -6.321     0.305      0.00
   H2O             5.551e+01   8.556e-01     1.744    -0.068     0.000     18.77
Ba            1.972e-04
   Ba+2            1.972e-04   4.016e-05    -3.705    -4.396    -0.691     -6.93
C(4)          1.033e-02
   HCO3-           7.899e-03   3.115e-03    -2.102    -2.507    -0.404    121.37
   CO2             2.321e-03   4.525e-03    -2.634    -2.344     0.290    112.97
   CO3-2           7.072e-05   4.661e-07    -4.150    -6.331    -2.181      4.03
   MgCO3           4.289e-05   4.289e-05    -4.368    -4.368     0.000    -17.05
Ca            4.380e-01
   Ca+2            4.380e-01   1.854e-01    -0.359    -0.732    -0.373    -14.79
Cl            3.961e+00
   Cl-             3.961e+00   2.288e+00     0.598     0.360    -0.238     19.60
K             1.854e-01
   K+              1.854e-01   1.189e-01    -0.732    -0.925    -0.193     12.11
Mg            7.720e-02
   Mg+2            7.713e-02   3.523e-02    -1.113    -1.453    -0.340    -21.03
   MgCO3           4.289e-05   4.289e-05    -4.368    -4.368     0.000    -17.05
   MgOH+           2.823e-05   1.638e-05    -4.549    -4.786    -0.236     (0)  
Mth           1.654e-03
   Mth             1.654e-03   1.654e-03    -2.781    -2.781     0.000     (0)  
Na            2.942e+00
   Na+             2.942e+00   2.962e+00     0.469     0.472     0.003      1.74
Ng            7.906e-05
   Ng              7.906e-05   7.906e-05    -4.102    -4.102     0.000     (0)  
S(6)          1.282e-03
   SO4-2           1.282e-03   6.156e-06    -2.892    -5.211    -2.318     23.36
   HSO4-           5.011e-09   1.979e-09    -8.300    -8.704    -0.404     44.06
Sg            6.997e-04
   HSg-            5.952e-04   9.531e-05    -3.225    -4.021    -0.795     (0)  
   H2Sg            1.030e-04   1.507e-04    -3.987    -3.822     0.165     (0)  
   Sg-2            1.592e-06   1.340e-09    -5.798    -8.873    -3.075     (0)  
   (H2Sg)2         1.998e-09   3.296e-09    -8.699    -8.482     0.217     24.59
Sr            1.471e-02
   Sr+2            1.471e-02   6.355e-03    -1.832    -2.197    -0.365    -15.84

------------------------------Saturation indices-------------------------------

  Phase               SI** log IAP   log K(371 K,   3 atm)

  Anhydrite        -0.60     -5.94   -5.34  CaSO4
  Aragonite         1.95     -7.06   -9.02  CaCO3
  Arcanite         -5.60     -7.06   -1.46  K2SO4
  Artinite         -1.97     13.21   15.18  Mg2CO3(OH)2:3H2O
  Barite           -0.06     -9.61   -9.55  BaSO4
  Bischofite       -4.84     -1.14    3.70  MgCl2:6H2O
  Bloedite         -8.86    -11.20   -2.35  Na2Mg(SO4)2:4H2O
  Brucite          -3.36    -13.53  -10.17  Mg(OH)2
  Burkeite        -13.15    -13.92   -0.77  Na6CO3(SO4)2
  Calcite           2.17     -7.06   -9.24  CaCO3
  Carnallite       -5.90     -1.71    4.19  KMgCl3:6H2O
  Celestite        -0.27     -7.41   -7.13  SrSO4
  CO2(g)           -0.37     -2.34   -1.98  CO2	 Pressure   0.4 atm, phi 0.992
  Dolomite          4.72    -14.85  -19.57  CaMg(CO3)2
  Epsomite         -5.61     -7.14   -1.52  MgSO4:7H2O
  Gaylussite       -3.37    -12.79   -9.42  CaNa2(CO3)2:5H2O
  Glaserite        -9.78    -12.72   -2.94  NaK3(SO4)2
  Glauberite       -3.59    -10.21   -6.62  Na2Ca(SO4)2
  Goergeyite       -6.97    -36.84  -29.87  K2Ca5(SO4)6H2O
  Gypsum           -1.14     -6.08   -4.94  CaSO4:2H2O
  H2O(g)           -0.06     -0.07   -0.01  H2O	 Pressure   0.9 atm, phi 0.976
  H2Sg(g)          -2.40    -10.34   -7.94  H2Sg	 Pressure   0.0 atm, phi 0.988
  Halite           -0.76      0.83    1.59  NaCl
  Hexahydrite      -5.30     -7.07   -1.77  MgSO4:6H2O
  Huntite           6.60     10.17    3.57  CaMg3(CO3)4
  Kainite          -7.24     -7.43   -0.20  KMgClSO4:3H2O
  Kalicinite       -3.64    -13.58   -9.94  KHCO3
  Kieserite        -4.74     -6.73   -2.00  MgSO4:H2O
  Labile_S         -8.94    -14.61   -5.68  Na4Ca(SO4)3:2H2O
  Leonhardite      -6.05     -6.93   -0.89  MgSO4:4H2O
  Leonite         -10.01    -14.00   -3.98  K2Mg(SO4)2:4H2O
  Magnesite         0.26     -7.78   -8.04  MgCO3
  MgCl2_2H2O      -10.54     -0.87    9.67  MgCl2:2H2O
  MgCl2_4H2O       -6.51     -1.01    5.51  MgCl2:4H2O
  Mirabilite       -5.27     -4.94    0.33  Na2SO4:10H2O
  Misenite        -70.99    -81.80  -10.82  K8H6(SO4)7
  Mth(g)            0.28     -2.78   -3.06  Mth	 Pressure   1.9 atm, phi 0.997
  Nahcolite        -1.44    -12.18  -10.74  NaHCO3
  Natron           -5.23     -6.07   -0.83  Na2CO3:10H2O
  Nesquehonite     -2.82     -7.99   -5.17  MgCO3:3H2O
  Ng(g)            -0.76     -4.10   -3.34  Ng	 Pressure   0.2 atm, phi 1.003
  Pentahydrite     -5.71     -7.00   -1.29  MgSO4:5H2O
  Pirssonite       -3.35    -12.59   -9.24  Na2Ca(CO3)2:2H2O
  Polyhalite      -12.00    -25.74  -13.74  K2MgCa2(SO4)4:2H2O
  Portlandite      -7.63    -12.81   -5.18  Ca(OH)2
  Schoenite        -9.80    -14.13   -4.33  K2Mg(SO4)2:6H2O
  Strontianite      1.35     -8.53   -9.88  SrCO3
  Sylvite          -1.89     -0.57    1.33  KCl
  Syngenite        -5.52    -13.07   -7.55  K2Ca(SO4)2:H2O
  Thenardite       -3.56     -4.27   -0.71  Na2SO4
  Trona            -6.32    -17.71  -11.38  Na3H(CO3)2:2H2O

**For a gas, SI = log10(fugacity). Fugacity = pressure * phi / 1 atm.
  For ideal gases, phi = 1.

Reaction step 5.

Using solution 1.	Solution after simulation 2.
Using gas phase 1.	Gas phase after simulation 2.
Using temperature 1.	
Using reaction 1.	

Reaction 1.	

	 -1.000e+00 moles of the following reaction have been added:

	                 Relative
	Reactant            moles

	CO2(g)               0.32820
	H2Sg(g)              0.00492
	Mth(g)               9.55200
	Ng(g)                1.14600

	                 Relative
	Element             moles
	C                    0.32820
	H                    0.00984
	Mth                  9.55200
	Ng                   1.14600
	O                    0.65640
	Sg                   0.00492

-----------------------------------Gas phase-----------------------------------

Total pressure:  3.03      atmospheres          (Peng-Robinson calculation)
    Gas volume:   1.00e+00 liters
  Molar volume:   9.69e+00 liters/mole
   P * Vm / RT:  0.99280  (Compressibility Factor Z) 

                                                        Moles in gas
                                            ----------------------------------
Component         log P           P    phi     Initial       Final       Delta

CO2(g)            -0.38   4.128e-01  0.992   3.328e-01   1.408e-02  -3.188e-01
H2O(g)            -0.24   5.726e-01  0.978   3.992e-01   1.953e-02  -3.797e-01
H2Sg(g)           -2.36   4.380e-03  0.988   2.446e-03   1.494e-04  -2.297e-03
Mth(g)             0.27   1.869e+00  0.997   9.217e+00   6.376e-02  -9.153e+00
Ng(g)             -0.78   1.672e-01  1.002   1.118e+00   5.705e-03  -1.112e+00

-----------------------------Solution composition------------------------------

	Elements           Molality       Moles

	Ba                1.972e-04   1.983e-04
	C                 1.052e-02   1.058e-02
	Ca                4.379e-01   4.404e-01
	Cl                3.960e+00   3.983e+00
	K                 1.854e-01   1.864e-01
	Mg                7.719e-02   7.763e-02
	Mth               1.607e-03   1.616e-03
	Na                2.942e+00   2.958e+00
	Ng                7.616e-05   7.660e-05
	S                 1.281e-03   1.289e-03
	Sg                6.836e-04   6.875e-04
	Sr                1.471e-02   1.479e-02

----------------------------Description of solution----------------------------

                                       pH  =   6.269      Charge balance
                                       pe  =   4.000      Adjusted to redox equilibrium
      Specific Conductance (µS/cm,  87°C)  = 472849
                          Density (g/cm³)  =   1.11187
                               Volume (L)  =   1.11871
                        Viscosity (mPa s)  =   0.54287
                        Activity of water  =   0.854
                 Ionic strength (mol/kgw)  =   4.611e+00
                       Mass of water (kg)  =   1.006e+00
                 Total alkalinity (eq/kg)  =   8.756e-03
                       Total CO2 (mol/kg)  =   1.052e-02
                         Temperature (°C)  =  86.67
                           Pressure (atm)  =  3.03
                  Electrical balance (eq)  =   2.167e-01
 Percent error, 100*(Cat-|An|)/(Cat+|An|)  =   2.64
                               Iterations  = 147
                         Gamma iterations  =   3
                      Osmotic coefficient  =   1.14554
                         Density of water  =   0.96761
                                  Total H  = 1.116552e+02
                                  Total O  = 5.585761e+01

----------------------------Distribution of species----------------------------

                                                    MacInnes  MacInnes
                                MacInnes       Log       Log       Log    mole V
   Species          Molality    Activity  Molality  Activity     Gamma   cm³/mol

   OH-             2.592e-06   5.185e-07    -5.586    -6.285    -0.699    -88.32
   H+              2.490e-07   5.383e-07    -6.604    -6.269     0.335      0.00
   H2O             5.551e+01   8.543e-01     1.744    -0.068     0.000     18.62
Ba            1.972e-04
   Ba+2            1.972e-04   4.588e-05    -3.705    -4.338    -0.633     -6.97
C(4)          1.052e-02
   HCO3-           7.951e-03   3.296e-03    -2.100    -2.482    -0.382    120.88
   CO2             2.460e-03   4.796e-03    -2.609    -2.319     0.290    112.97
   CO3-2           6.806e-05   4.568e-07    -4.167    -6.340    -2.173      5.10
   MgCO3           4.151e-05   4.151e-05    -4.382    -4.382     0.000    -17.07
Ca            4.379e-01
   Ca+2            4.379e-01   2.151e-01    -0.359    -0.667    -0.309    -14.51
Cl            3.960e+00
   Cl-             3.960e+00   2.335e+00     0.598     0.368    -0.229     19.86
K             1.854e-01
   K+              1.854e-01   1.226e-01    -0.732    -0.911    -0.179     12.01
Mg            7.719e-02
   Mg+2            7.713e-02   4.168e-02    -1.113    -1.380    -0.267    -20.49
   MgCO3           4.151e-05   4.151e-05    -4.382    -4.382     0.000    -17.07
   MgOH+           1.448e-05   8.878e-06    -4.839    -5.052    -0.212     (0)  
Mth           1.607e-03
   Mth             1.607e-03   1.607e-03    -2.794    -2.794     0.000     (0)  
Na            2.942e+00
   Na+             2.942e+00   3.083e+00     0.469     0.489     0.020      1.66
Ng            7.616e-05
   Ng              7.616e-05   7.616e-05    -4.118    -4.118     0.000     (0)  
S(6)          1.281e-03
   SO4-2           1.281e-03   7.049e-06    -2.892    -5.152    -2.260     24.04
   HSO4-           4.490e-09   1.830e-09    -8.348    -8.737    -0.390     43.94
Sg            6.836e-04
   HSg-            5.673e-04   9.379e-05    -3.246    -4.028    -0.782     (0)  
   H2Sg            1.156e-04   1.704e-04    -3.937    -3.769     0.169     (0)  
   Sg-2            7.056e-07   6.968e-10    -6.151    -9.157    -3.005     (0)  
   (H2Sg)2         2.500e-09   3.936e-09    -8.602    -8.405     0.197     25.86
Sr            1.471e-02
   Sr+2            1.471e-02   7.074e-03    -1.832    -2.150    -0.318    -15.36

------------------------------Saturation indices-------------------------------

  Phase               SI** log IAP   log K(359 K,   3 atm)

  Anhydrite        -0.66     -5.82   -5.16  CaSO4
  Aragonite         1.84     -7.01   -8.85  CaCO3
  Arcanite         -5.50     -6.97   -1.48  K2SO4
  Artinite         -2.53     13.22   15.75  Mg2CO3(OH)2:3H2O
  Barite            0.06     -9.49   -9.55  BaSO4
  Bischofite       -4.89     -1.05    3.84  MgCl2:6H2O
  Bloedite         -8.63    -10.98   -2.35  Na2Mg(SO4)2:4H2O
  Brucite          -3.69    -13.95  -10.26  Mg(OH)2
  Burkeite        -12.94    -13.71   -0.77  Na6CO3(SO4)2
  Calcite           2.07     -7.01   -9.08  CaCO3
  Carnallite       -5.88     -1.60    4.28  KMgCl3:6H2O
  Celestite        -0.25     -7.30   -7.05  SrSO4
  CO2(g)           -0.39     -2.32   -1.93  CO2	 Pressure   0.4 atm, phi 0.992
  Dolomite          4.39    -14.73  -19.11  CaMg(CO3)2
  Epsomite         -5.46     -7.01   -1.55  MgSO4:7H2O
  Gaylussite       -3.29    -12.71   -9.42  CaNa2(CO3)2:5H2O
  Glaserite        -9.50    -12.55   -3.05  NaK3(SO4)2
  Glauberite       -3.64     -9.99   -6.36  Na2Ca(SO4)2
  Goergeyite       -6.79    -36.14  -29.35  K2Ca5(SO4)6H2O
  Gypsum           -1.09     -5.96   -4.86  CaSO4:2H2O
  H2O(g)           -0.25     -0.07    0.18  H2O	 Pressure   0.6 atm, phi 0.978
  H2Sg(g)          -2.36    -10.30   -7.93  H2Sg	 Pressure   0.0 atm, phi 0.988
  Halite           -0.75      0.86    1.60  NaCl
  Hexahydrite      -5.20     -6.94   -1.74  MgSO4:6H2O
  Huntite           5.84     10.34    4.50  CaMg3(CO3)4
  Kainite          -7.08     -7.28   -0.20  KMgClSO4:3H2O
  Kalicinite       -3.58    -13.52   -9.94  KHCO3
  Kieserite        -4.92     -6.60   -1.68  MgSO4:H2O
  Labile_S         -8.63    -14.30   -5.68  Na4Ca(SO4)3:2H2O
  Leonhardite      -5.92     -6.81   -0.89  MgSO4:4H2O
  Leonite          -9.80    -13.78   -3.98  K2Mg(SO4)2:4H2O
  Magnesite         0.30     -7.72   -8.02  MgCO3
  MgCl2_2H2O      -11.08     -0.78   10.30  MgCl2:2H2O
  MgCl2_4H2O       -6.65     -0.92    5.73  MgCl2:4H2O
  Mirabilite       -5.13     -4.86    0.27  Na2SO4:10H2O
  Misenite        -70.15    -80.97  -10.81  K8H6(SO4)7
  Mth(g)            0.27     -2.79   -3.06  Mth	 Pressure   1.9 atm, phi 0.997
  Nahcolite        -1.38    -12.12  -10.74  NaHCO3
  Natron           -5.22     -6.05   -0.83  Na2CO3:10H2O
  Nesquehonite     -2.76     -7.93   -5.17  MgCO3:3H2O
  Ng(g)            -0.78     -4.12   -3.34  Ng	 Pressure   0.2 atm, phi 1.002
  Pentahydrite     -5.59     -6.87   -1.29  MgSO4:5H2O
  Pirssonite       -3.27    -12.51   -9.24  Na2Ca(CO3)2:2H2O
  Polyhalite      -11.54    -25.28  -13.74  K2MgCa2(SO4)4:2H2O
  Portlandite      -8.05    -13.24   -5.18  Ca(OH)2
  Schoenite        -9.58    -13.92   -4.33  K2Mg(SO4)2:6H2O
  Strontianite      1.24     -8.49   -9.73  SrCO3
  Sylvite          -1.84     -0.54    1.29  KCl
  Syngenite        -5.45    -12.86   -7.41  K2Ca(SO4)2:H2O
  Thenardite       -3.54     -4.17   -0.63  Na2SO4
  Trona            -6.24    -17.62  -11.38  Na3H(CO3)2:2H2O

**For a gas, SI = log10(fugacity). Fugacity = pressure * phi / 1 atm.
  For ideal gases, phi = 1.

Reaction step 6.

Using solution 1.	Solution after simulation 2.
Using gas phase 1.	Gas phase after simulation 2.
Using temperature 1.	
Using reaction 1.	

Reaction 1.	

	 -1.000e+00 moles of the following reaction have been added:

	                 Relative
	Reactant            moles

	CO2(g)               0.32820
	H2Sg(g)              0.00492
	Mth(g)               9.55200
	Ng(g)                1.14600

	                 Relative
	Element             moles
	C                    0.32820
	H                    0.00984
	Mth                  9.55200
	Ng                   1.14600
	O                    0.65640
	Sg                   0.00492

-----------------------------------Gas phase-----------------------------------

Total pressure:  2.73      atmospheres          (Peng-Robinson calculation)
    Gas volume:   1.00e+00 liters
  Molar volume:   1.04e+01 liters/mole
   P * Vm / RT:  0.99387  (Compressibility Factor Z) 

                                                        Moles in gas
                                            ----------------------------------
Component         log P           P    phi     Initial       Final       Delta

CO2(g)            -0.41   3.933e-01  0.992   3.328e-01   1.384e-02  -3.190e-01
H2O(g)            -0.45   3.538e-01  0.979   3.992e-01   1.245e-02  -3.868e-01
H2Sg(g)           -2.33   4.728e-03  0.988   2.446e-03   1.664e-04  -2.280e-03
Mth(g)             0.26   1.812e+00  0.997   9.217e+00   6.377e-02  -9.153e+00
Ng(g)             -0.79   1.622e-01  1.002   1.118e+00   5.706e-03  -1.112e+00

-----------------------------Solution composition------------------------------

	Elements           Molality       Moles

	Ba                1.972e-04   1.983e-04
	C                 1.076e-02   1.082e-02
	Ca                4.379e-01   4.404e-01
	Cl                3.960e+00   3.983e+00
	K                 1.853e-01   1.864e-01
	Mg                7.718e-02   7.763e-02
	Mth               1.595e-03   1.604e-03
	Na                2.941e+00   2.958e+00
	Ng                7.475e-05   7.519e-05
	S                 1.281e-03   1.289e-03
	Sg                6.667e-04   6.705e-04
	Sr                1.471e-02   1.479e-02

----------------------------Description of solution----------------------------

                                       pH  =   6.219      Charge balance
                                       pe  =   4.000      Adjusted to redox equilibrium
      Specific Conductance (µS/cm,  75°C)  = 424893
                          Density (g/cm³)  =   1.11875
                               Volume (L)  =   1.11195
                        Viscosity (mPa s)  =   0.62146
                        Activity of water  =   0.853
                 Ionic strength (mol/kgw)  =   4.610e+00
                       Mass of water (kg)  =   1.006e+00
                 Total alkalinity (eq/kg)  =   8.754e-03
                       Total CO2 (mol/kg)  =   1.076e-02
                         Temperature (°C)  =  75.33
                           Pressure (atm)  =  2.73
                  Electrical balance (eq)  =   2.167e-01
 Percent error, 100*(Cat-|An|)/(Cat+|An|)  =   2.64
                               Iterations  = 148
                         Gamma iterations  =   3
                      Osmotic coefficient  =   1.15496
                         Density of water  =   0.97472
                                  Total H  = 1.116693e+02
                                  Total O  = 5.586518e+01

----------------------------Distribution of species----------------------------

                                                    MacInnes  MacInnes
                                MacInnes       Log       Log       Log    mole V
   Species          Molality    Activity  Molality  Activity     Gamma   cm³/mol

   OH-             1.400e-06   2.820e-07    -5.854    -6.550    -0.696    -88.75
   H+              2.606e-07   6.033e-07    -6.584    -6.219     0.365      0.00
   H2O             5.551e+01   8.532e-01     1.744    -0.069     0.000     18.48
Ba            1.972e-04
   Ba+2            1.972e-04   5.248e-05    -3.705    -4.280    -0.575     -7.01
C(4)          1.076e-02
   HCO3-           8.004e-03   3.479e-03    -2.097    -2.459    -0.362    120.45
   CO2             2.653e-03   5.172e-03    -2.576    -2.286     0.290    112.97
   CO3-2           6.446e-05   4.353e-07    -4.191    -6.361    -2.170      5.96
   MgCO3           3.901e-05   3.901e-05    -4.409    -4.409     0.000    -17.08
Ca            4.379e-01
   Ca+2            4.379e-01   2.479e-01    -0.359    -0.606    -0.247    -14.30
Cl            3.960e+00
   Cl-             3.960e+00   2.370e+00     0.598     0.375    -0.223     20.06
K             1.853e-01
   K+              1.853e-01   1.259e-01    -0.732    -0.900    -0.168     11.91
Mg            7.718e-02
   Mg+2            7.713e-02   4.920e-02    -1.113    -1.308    -0.195    -19.99
   MgCO3           3.901e-05   3.901e-05    -4.409    -4.409     0.000    -17.08
   MgOH+           7.158e-06   4.633e-06    -5.145    -5.334    -0.189     (0)  
Mth           1.595e-03
   Mth             1.595e-03   1.595e-03    -2.797    -2.797     0.000     (0)  
Na            2.941e+00
   Na+             2.941e+00   3.193e+00     0.469     0.504     0.036      1.59
Ng            7.475e-05
   Ng              7.475e-05   7.475e-05    -4.126    -4.126     0.000     (0)  
S(6)          1.281e-03
   SO4-2           1.281e-03   7.922e-06    -2.892    -5.101    -2.209     24.65
   HSO4-           3.970e-09   1.666e-09    -8.401    -8.778    -0.377     43.77
Sg            6.667e-04
   HSg-            5.341e-04   9.090e-05    -3.272    -4.041    -0.769     (0)  
   H2Sg            1.322e-04   1.965e-04    -3.879    -3.707     0.172     (0)  
   Sg-2            3.036e-07   3.476e-10    -6.518    -9.459    -2.941     (0)  
   (H2Sg)2         3.167e-09   4.751e-09    -8.499    -8.323     0.176     26.95
Sr            1.471e-02
   Sr+2            1.471e-02   7.806e-03    -1.832    -2.108    -0.275    -14.91

------------------------------Saturation indices-------------------------------

  Phase               SI** log IAP   log K(348 K,   3 atm)

  Anhydrite        -0.73     -5.71   -4.98  CaSO4
  Aragonite         1.73     -6.97   -8.70  CaCO3
  Arcanite         -5.40     -6.90   -1.50  K2SO4
  Artinite         -3.13     13.24   16.37  Mg2CO3(OH)2:3H2O
  Barite            0.18     -9.38   -9.57  BaSO4
  Bischofite       -4.95     -0.97    3.98  MgCl2:6H2O
  Bloedite         -8.43    -10.78   -2.35  Na2Mg(SO4)2:4H2O
  Brucite          -4.05    -14.41  -10.36  Mg(OH)2
  Burkeite        -12.77    -13.54   -0.77  Na6CO3(SO4)2
  Calcite           1.96     -6.97   -8.93  CaCO3
  Carnallite       -5.85     -1.50    4.36  KMgCl3:6H2O
  Celestite        -0.24     -7.21   -6.97  SrSO4
  CO2(g)           -0.41     -2.29   -1.88  CO2	 Pressure   0.4 atm, phi 0.992
  Dolomite          4.05    -14.64  -18.68  CaMg(CO3)2
  Epsomite         -5.31     -6.89   -1.59  MgSO4:7H2O
  Gaylussite       -3.24    -12.66   -9.42  CaNa2(CO3)2:5H2O
  Glaserite        -9.23    -12.40   -3.17  NaK3(SO4)2
  Glauberite       -3.68     -9.80   -6.12  Na2Ca(SO4)2
  Goergeyite       -6.54    -35.51  -28.96  K2Ca5(SO4)6H2O
  Gypsum           -1.06     -5.84   -4.79  CaSO4:2H2O
  H2O(g)           -0.46     -0.07    0.39  H2O	 Pressure   0.4 atm, phi 0.979
  H2Sg(g)          -2.33    -10.26   -7.93  H2Sg	 Pressure   0.0 atm, phi 0.988
  Halite           -0.74      0.88    1.61  NaCl
  Hexahydrite      -5.11     -6.82   -1.71  MgSO4:6H2O
  Huntite           5.06     10.51    5.45  CaMg3(CO3)4
  Kainite          -6.95     -7.14   -0.20  KMgClSO4:3H2O
  Kalicinite       -3.54    -13.48   -9.94  KHCO3
  Kieserite        -5.09     -6.48   -1.38  MgSO4:H2O
  Labile_S         -8.36    -14.03   -5.67  Na4Ca(SO4)3:2H2O
  Leonhardite      -5.80     -6.69   -0.89  MgSO4:4H2O
  Leonite          -9.60    -13.59   -3.98  K2Mg(SO4)2:4H2O
  Magnesite         0.32     -7.67   -7.99  MgCO3
  MgCl2_2H2O      -11.67     -0.70   10.97  MgCl2:2H2O
  MgCl2_4H2O       -6.80     -0.83    5.96  MgCl2:4H2O
  Mirabilite       -4.93     -4.78    0.15  Na2SO4:10H2O
  Misenite        -69.41    -80.23  -10.81  K8H6(SO4)7
  Mth(g)            0.26     -2.80   -3.05  Mth	 Pressure   1.8 atm, phi 0.997
  Nahcolite        -1.34    -12.08  -10.74  NaHCO3
  Natron           -5.21     -6.04   -0.83  Na2CO3:10H2O
  Nesquehonite     -2.71     -7.88   -5.17  MgCO3:3H2O
  Ng(g)            -0.79     -4.13   -3.34  Ng	 Pressure   0.2 atm, phi 1.002
  Pentahydrite     -5.47     -6.75   -1.29  MgSO4:5H2O
  Pirssonite       -3.22    -12.46   -9.23  Na2Ca(CO3)2:2H2O
  Polyhalite      -11.12    -24.86  -13.74  K2MgCa2(SO4)4:2H2O
  Portlandite      -8.52    -13.71   -5.18  Ca(OH)2
  Schoenite        -9.39    -13.72   -4.33  K2Mg(SO4)2:6H2O
  Strontianite      1.13     -8.47   -9.60  SrCO3
  Sylvite          -1.78     -0.53    1.25  KCl
  Syngenite        -5.42    -12.68   -7.25  K2Ca(SO4)2:H2O
  Thenardite       -3.53     -4.09   -0.56  Na2SO4
  Trona            -6.18    -17.57  -11.38  Na3H(CO3)2:2H2O

**For a gas, SI = log10(fugacity). Fugacity = pressure * phi / 1 atm.
  For ideal gases, phi = 1.

Reaction step 7.

Using solution 1.	Solution after simulation 2.
Using gas phase 1.	Gas phase after simulation 2.
Using temperature 1.	
Using reaction 1.	

Reaction 1.	

	 -1.000e+00 moles of the following reaction have been added:

	                 Relative
	Reactant            moles

	CO2(g)               0.32820
	H2Sg(g)              0.00492
	Mth(g)               9.55200
	Ng(g)                1.14600

	                 Relative
	Element             moles
	C                    0.32820
	H                    0.00984
	Mth                  9.55200
	Ng                   1.14600
	O                    0.65640
	Sg                   0.00492

-----------------------------------Gas phase-----------------------------------

Total pressure:  2.50      atmospheres          (Peng-Robinson calculation)
    Gas volume:   1.00e+00 liters
  Molar volume:   1.10e+01 liters/mole
   P * Vm / RT:  0.99450  (Compressibility Factor Z) 

                                                        Moles in gas
                                            ----------------------------------
Component         log P           P    phi     Initial       Final       Delta

CO2(g)            -0.43   3.721e-01  0.992   3.328e-01   1.352e-02  -3.193e-01
H2O(g)            -0.67   2.119e-01  0.980   3.992e-01   7.701e-03  -3.915e-01
H2Sg(g)           -2.30   5.038e-03  0.988   2.446e-03   1.831e-04  -2.263e-03
Mth(g)             0.24   1.754e+00  0.996   9.217e+00   6.374e-02  -9.153e+00
Ng(g)             -0.80   1.570e-01  1.001   1.118e+00   5.706e-03  -1.112e+00

-----------------------------Solution composition------------------------------

	Elements           Molality       Moles

	Ba                1.972e-04   1.983e-04
	C                 1.107e-02   1.114e-02
	Ca                4.379e-01   4.404e-01
	Cl                3.959e+00   3.983e+00
	K                 1.853e-01   1.864e-01
	Mg                7.717e-02   7.763e-02
	Mth               1.621e-03   1.631e-03
	Na                2.941e+00   2.958e+00
	Ng                7.492e-05   7.536e-05
	S                 1.281e-03   1.289e-03
	Sg                6.500e-04   6.538e-04
	Sr                1.471e-02   1.479e-02

----------------------------Description of solution----------------------------

                                       pH  =   6.174      Charge balance
                                       pe  =   4.000      Adjusted to redox equilibrium
      Specific Conductance (µS/cm,  64°C)  = 376672
                          Density (g/cm³)  =   1.12528
                               Volume (L)  =   1.10559
                        Viscosity (mPa s)  =   0.72175
                        Activity of water  =   0.852
                 Ionic strength (mol/kgw)  =   4.610e+00
                       Mass of water (kg)  =   1.006e+00
                 Total alkalinity (eq/kg)  =   8.754e-03
                       Total CO2 (mol/kg)  =   1.107e-02
                         Temperature (°C)  =  64.00
                           Pressure (atm)  =  2.50
                  Electrical balance (eq)  =   2.167e-01
 Percent error, 100*(Cat-|An|)/(Cat+|An|)  =   2.64
                               Iterations  = 148
                         Gamma iterations  =   3
                      Osmotic coefficient  =   1.16261
                         Density of water  =   0.98115
                                  Total H  = 1.116787e+02
                                  Total O  = 5.587056e+01

----------------------------Distribution of species----------------------------

                                                    MacInnes  MacInnes
                                MacInnes       Log       Log       Log    mole V
   Species          Molality    Activity  Molality  Activity     Gamma   cm³/mol

   OH-             7.238e-07   1.465e-07    -6.140    -6.834    -0.694    -89.11
   H+              2.703e-07   6.693e-07    -6.568    -6.174     0.394      0.00
   H2O             5.551e+01   8.523e-01     1.744    -0.069     0.000     18.36
Ba            1.972e-04
[...]
  Kieserite        -5.44     -6.26   -0.83  MgSO4:H2O
  Labile_S         -7.93    -13.61   -5.67  Na4Ca(SO4)3:2H2O
  Leonhardite      -5.58     -6.47   -0.89  MgSO4:4H2O
  Leonite          -9.29    -13.27   -3.98  K2Mg(SO4)2:4H2O
  Magnesite         0.32     -7.61   -7.92  MgCO3
  MgCl2_2H2O      -12.99     -0.55   12.45  MgCl2:2H2O
  MgCl2_4H2O       -7.10     -0.69    6.42  MgCl2:4H2O
  Mirabilite       -4.38     -4.67   -0.29  Na2SO4:10H2O
  Misenite        -68.28    -79.09  -10.81  K8H6(SO4)7
  Mth(g)            0.23     -2.77   -3.00  Mth	 Pressure   1.7 atm, phi 0.996
  Nahcolite        -1.31    -12.05  -10.74  NaHCO3
  Natron           -5.25     -6.08   -0.83  Na2CO3:10H2O
  Nesquehonite     -2.65     -7.82   -5.17  MgCO3:3H2O
  Ng(g)            -0.82     -4.11   -3.30  Ng	 Pressure   0.2 atm, phi 1.001
  Pentahydrite     -5.26     -6.54   -1.29  MgSO4:5H2O
  Pirssonite       -3.22    -12.46   -9.23  Na2Ca(CO3)2:2H2O
  Polyhalite      -10.43    -24.17  -13.74  K2MgCa2(SO4)4:2H2O
  Portlandite      -9.58    -14.77   -5.19  Ca(OH)2
  Schoenite        -9.08    -13.41   -4.33  K2Mg(SO4)2:6H2O
  Strontianite      0.92     -8.47   -9.39  SrCO3
  Sylvite          -1.64     -0.50    1.13  KCl
  Syngenite        -5.47    -12.39   -6.91  K2Ca(SO4)2:H2O
  Thenardite       -3.54     -3.97   -0.44  Na2SO4
  Trona            -6.19    -17.57  -11.38  Na3H(CO3)2:2H2O

**For a gas, SI = log10(fugacity). Fugacity = pressure * phi / 1 atm.
  For ideal gases, phi = 1.

Reaction step 9.

Using solution 1.	Solution after simulation 2.
Using gas phase 1.	Gas phase after simulation 2.
Using temperature 1.	
Using reaction 1.	

Reaction 1.	

	 -1.000e+00 moles of the following reaction have been added:

	                 Relative
	Reactant            moles

	CO2(g)               0.32820
	H2Sg(g)              0.00492
	Mth(g)               9.55200
	Ng(g)                1.14600

	                 Relative
	Element             moles
	C                    0.32820
	H                    0.00984
	Mth                  9.55200
	Ng                   1.14600
	O                    0.65640
	Sg                   0.00492

-----------------------------------Gas phase-----------------------------------

Total pressure:  2.17      atmospheres          (Peng-Robinson calculation)
    Gas volume:   1.00e+00 liters
  Molar volume:   1.18e+01 liters/mole
   P * Vm / RT:  0.99491  (Compressibility Factor Z) 

                                                        Moles in gas
                                            ----------------------------------
Component         log P           P    phi     Initial       Final       Delta

CO2(g)            -0.49   3.224e-01  0.991   3.328e-01   1.256e-02  -3.203e-01
H2O(g)            -1.17   6.821e-02  0.980   3.992e-01   2.657e-03  -3.966e-01
H2Sg(g)           -2.27   5.351e-03  0.987   2.446e-03   2.084e-04  -2.238e-03
Mth(g)             0.21   1.631e+00  0.996   9.217e+00   6.353e-02  -9.154e+00
Ng(g)             -0.83   1.463e-01  1.000   1.118e+00   5.700e-03  -1.112e+00

-----------------------------Solution composition------------------------------

	Elements           Molality       Moles

	Ba                1.971e-04   1.983e-04
	C                 1.203e-02   1.211e-02
	Ca                4.378e-01   4.404e-01
	Cl                3.959e+00   3.983e+00
	K                 1.853e-01   1.864e-01
	Mg                7.716e-02   7.763e-02
	Mth               1.834e-03   1.845e-03
	Na                2.941e+00   2.958e+00
	Ng                8.109e-05   8.158e-05
	S                 1.281e-03   1.289e-03
	Sg                6.248e-04   6.285e-04
	Sr                1.471e-02   1.479e-02

----------------------------Description of solution----------------------------

                                       pH  =   6.106      Charge balance
                                       pe  =   4.000      Adjusted to redox equilibrium
      Specific Conductance (µS/cm,  41°C)  = 281412
                          Density (g/cm³)  =   1.13732
                               Volume (L)  =   1.09401
                        Viscosity (mPa s)  =   1.02715
                        Activity of water  =   0.851
                 Ionic strength (mol/kgw)  =   4.609e+00
                       Mass of water (kg)  =   1.006e+00
                 Total alkalinity (eq/kg)  =   8.753e-03
                       Total CO2 (mol/kg)  =   1.203e-02
                         Temperature (°C)  =  41.33
                           Pressure (atm)  =  2.17
                  Electrical balance (eq)  =   2.167e-01
 Percent error, 100*(Cat-|An|)/(Cat+|An|)  =   2.64
                               Iterations  = 146
                         Gamma iterations  =   3
                      Osmotic coefficient  =   1.17096
                         Density of water  =   0.99175
                                  Total H  = 1.116888e+02
                                  Total O  = 5.587753e+01

----------------------------Distribution of species----------------------------

                                                    MacInnes  MacInnes
                                MacInnes       Log       Log       Log    mole V
   Species          Molality    Activity  Molality  Activity     Gamma   cm³/mol

   H+              2.774e-07   7.839e-07    -6.557    -6.106     0.451      0.00
   OH-             1.679e-07   3.406e-08    -6.775    -7.468    -0.693    -89.69
   H2O             5.551e+01   8.513e-01     1.744    -0.070     0.000     18.17
Ba            1.971e-04
   Ba+2            1.971e-04   8.129e-05    -3.705    -4.090    -0.385     -7.30
C(4)          1.203e-02
   HCO3-           8.194e-03   4.043e-03    -2.087    -2.393    -0.307    119.51
   CO2             3.763e-03   7.337e-03    -2.424    -2.135     0.290    112.97
   CO3-2           4.919e-05   3.165e-07    -4.308    -6.500    -2.191      7.13
   MgCO3           2.744e-05   2.744e-05    -4.562    -4.562     0.000    -17.09
Ca            4.378e-01
   Ca+2            4.378e-01   3.651e-01    -0.359    -0.438    -0.079    -14.28
Cl            3.959e+00
   Cl-             3.959e+00   2.382e+00     0.598     0.377    -0.221     20.16
K             1.853e-01
   K+              1.853e-01   1.315e-01    -0.732    -0.881    -0.149     11.65
Mg            7.716e-02
   Mg+2            7.714e-02   8.047e-02    -1.113    -1.094     0.018    -18.78
   MgCO3           2.744e-05   2.744e-05    -4.562    -4.562     0.000    -17.09
   MgOH+           6.939e-07   5.242e-07    -6.159    -6.281    -0.122     (0)  
Mth           1.834e-03
   Mth             1.834e-03   1.834e-03    -2.736    -2.736     0.000     (0)  
Na            2.941e+00
   Na+             2.941e+00   3.421e+00     0.468     0.534     0.066      1.24
Ng            8.109e-05
   Ng              8.109e-05   8.109e-05    -4.091    -4.091     0.000     (0)  
S(6)          1.281e-03
   SO4-2           1.281e-03   9.753e-06    -2.892    -5.011    -2.118     25.52
   HSO4-           2.405e-09   1.084e-09    -8.619    -8.965    -0.346     42.79
Sg            6.248e-04
   HSg-            4.052e-04   7.409e-05    -3.392    -4.130    -0.738     (0)  
   H2Sg            2.195e-04   3.344e-04    -3.659    -3.476     0.183     (0)  
   Sg-2            1.977e-08   3.297e-11    -7.704   -10.482    -2.778     (0)  
   (H2Sg)2         6.573e-09   8.449e-09    -8.182    -8.073     0.109     29.35
Sr            1.471e-02
   Sr+2            1.471e-02   1.003e-02    -1.833    -1.999    -0.166    -13.95

------------------------------Saturation indices-------------------------------

  Phase               SI** log IAP   log K(314 K,   2 atm)

  Anhydrite        -0.98     -5.45   -4.47  CaSO4
  Aragonite         1.40     -6.94   -8.34  CaCO3
  Arcanite         -5.07     -6.77   -1.70  K2SO4
  Artinite         -5.09     13.39   18.48  Mg2CO3(OH)2:3H2O
  Barite            0.64     -9.10   -9.74  BaSO4
  Bischofite       -5.15     -0.76    4.39  MgCl2:6H2O
  Bloedite         -7.98    -10.33   -2.35  Na2Mg(SO4)2:4H2O
  Brucite          -5.34    -16.03  -10.69  Mg(OH)2
  Burkeite        -12.55    -13.32   -0.77  Na6CO3(SO4)2
  Calcite           1.65     -6.94   -8.59  CaCO3
  Carnallite       -5.72     -1.26    4.45  KMgCl3:6H2O
  Celestite        -0.26     -7.01   -6.75  SrSO4
  CO2(g)           -0.50     -2.13   -1.64  CO2	 Pressure   0.3 atm, phi 0.991
  Dolomite          3.01    -14.53  -17.54  CaMg(CO3)2
  Epsomite         -4.85     -6.59   -1.74  MgSO4:7H2O
  Gaylussite       -3.30    -12.72   -9.42  CaNa2(CO3)2:5H2O
  Glaserite        -8.56    -12.13   -3.57  NaK3(SO4)2
  Glauberite       -3.86     -9.39   -5.53  Na2Ca(SO4)2
  Goergeyite       -5.31    -34.09  -28.78  K2Ca5(SO4)6H2O
  Gypsum           -0.96     -5.59   -4.63  CaSO4:2H2O
  H2O(g)           -1.17     -0.07    1.11  H2O	 Pressure   0.1 atm, phi 0.980
  H2Sg(g)          -2.28    -10.24   -7.96  H2Sg	 Pressure   0.0 atm, phi 0.987
  Halite           -0.70      0.91    1.61  NaCl
  Hexahydrite      -4.91     -6.52   -1.61  MgSO4:6H2O
  Huntite           2.58     11.13    8.55  CaMg3(CO3)4
  Kainite          -6.62     -6.82   -0.19  KMgClSO4:3H2O
  Kalicinite       -3.55    -13.49   -9.94  KHCO3
  Kieserite        -5.60     -6.18   -0.58  MgSO4:H2O
  Labile_S         -7.80    -13.47   -5.67  Na4Ca(SO4)3:2H2O
  Leonhardite      -5.50     -6.38   -0.89  MgSO4:4H2O
  Leonite          -9.18    -13.16   -3.98  K2Mg(SO4)2:4H2O
  Magnesite         0.30     -7.59   -7.89  MgCO3
  MgCl2_2H2O      -13.75     -0.48   13.27  MgCl2:2H2O
  MgCl2_4H2O       -7.27     -0.62    6.65  MgCl2:4H2O
  Mirabilite       -4.02     -4.64   -0.62  Na2SO4:10H2O
  Misenite        -67.95    -78.76  -10.81  K8H6(SO4)7
  Mth(g)            0.21     -2.74   -2.95  Mth	 Pressure   1.6 atm, phi 0.996
  Nahcolite        -1.33    -12.07  -10.74  NaHCO3
  Natron           -5.30     -6.13   -0.83  Na2CO3:10H2O
  Nesquehonite     -2.64     -7.80   -5.17  MgCO3:3H2O
  Ng(g)            -0.83     -4.09   -3.26  Ng	 Pressure   0.1 atm, phi 1.000
  Pentahydrite     -5.17     -6.45   -1.29  MgSO4:5H2O
  Pirssonite       -3.27    -12.51   -9.23  Na2Ca(CO3)2:2H2O
  Polyhalite      -10.17    -23.91  -13.74  K2MgCa2(SO4)4:2H2O
  Portlandite     -10.19    -15.37   -5.19  Ca(OH)2
  Schoenite        -8.97    -13.30   -4.33  K2Mg(SO4)2:6H2O
  Strontianite      0.82     -8.50   -9.32  SrCO3
  Sylvite          -1.56     -0.50    1.05  KCl
  Syngenite        -5.57    -12.29   -6.73  K2Ca(SO4)2:H2O
  Thenardite       -3.56     -3.94   -0.38  Na2SO4
  Trona            -6.26    -17.64  -11.38  Na3H(CO3)2:2H2O

**For a gas, SI = log10(fugacity). Fugacity = pressure * phi / 1 atm.
  For ideal gases, phi = 1.

Reaction step 10.

Using solution 1.	Solution after simulation 2.
Using gas phase 1.	Gas phase after simulation 2.
Using temperature 1.	
Using reaction 1.	

Reaction 1.	

	 -1.000e+00 moles of the following reaction have been added:

	                 Relative
	Reactant            moles

	CO2(g)               0.32820
	H2Sg(g)              0.00492
	Mth(g)               9.55200
	Ng(g)                1.14600

	                 Relative
	Element             moles
	C                    0.32820
	H                    0.00984
	Mth                  9.55200
	Ng                   1.14600
	O                    0.65640
	Sg                   0.00492

-----------------------------------Gas phase-----------------------------------

Total pressure:  2.04      atmospheres          (Peng-Robinson calculation)
    Gas volume:   1.00e+00 liters
  Molar volume:   1.21e+01 liters/mole
   P * Vm / RT:  0.99486  (Compressibility Factor Z) 

                                                        Moles in gas
                                            ----------------------------------
Component         log P           P    phi     Initial       Final       Delta

CO2(g)            -0.53   2.927e-01  0.990   3.328e-01   1.183e-02  -3.210e-01
H2O(g)            -1.44   3.636e-02  0.980   3.992e-01   1.469e-03  -3.978e-01
H2Sg(g)           -2.28   5.233e-03  0.987   2.446e-03   2.114e-04  -2.235e-03
Mth(g)             0.19   1.567e+00  0.996   9.217e+00   6.330e-02  -9.154e+00
Ng(g)             -0.85   1.409e-01  1.000   1.118e+00   5.693e-03  -1.112e+00

-----------------------------Solution composition------------------------------

	Elements           Molality       Moles

	Ba                1.971e-04   1.983e-04
	C                 1.276e-02   1.284e-02
	Ca                4.378e-01   4.404e-01
	Cl                3.959e+00   3.983e+00
	K                 1.853e-01   1.864e-01
	Mg                7.716e-02   7.763e-02
	Mth               2.061e-03   2.074e-03
	Na                2.941e+00   2.958e+00
	Ng                8.818e-05   8.871e-05
	S                 1.281e-03   1.289e-03
	Sg                6.217e-04   6.255e-04
	Sr                1.470e-02   1.479e-02

----------------------------Description of solution----------------------------

                                       pH  =   6.089      Charge balance
                                       pe  =   4.000      Adjusted to redox equilibrium
      Specific Conductance (µS/cm,  30°C)  = 235380
                          Density (g/cm³)  =   1.14291
                               Volume (L)  =   1.08870
                        Viscosity (mPa s)  =   1.26856
                        Activity of water  =   0.851
                 Ionic strength (mol/kgw)  =   4.609e+00
                       Mass of water (kg)  =   1.006e+00
                 Total alkalinity (eq/kg)  =   8.753e-03
                       Total CO2 (mol/kg)  =   1.276e-02
                         Temperature (°C)  =  30.00
                           Pressure (atm)  =  2.04
                  Electrical balance (eq)  =   2.167e-01
 Percent error, 100*(Cat-|An|)/(Cat+|An|)  =   2.64
                               Iterations  = 146
                         Gamma iterations  =   3
                      Osmotic coefficient  =   1.17034
                         Density of water  =   0.99569
                                  Total H  = 1.116912e+02
                                  Total O  = 5.588018e+01

----------------------------Distribution of species----------------------------

                                                    MacInnes  MacInnes
                                MacInnes       Log       Log       Log    mole V
   Species          Molality    Activity  Molality  Activity     Gamma   cm³/mol

   H+              2.703e-07   8.150e-07    -6.568    -6.089     0.479      0.00
   OH-             7.501e-08   1.519e-08    -7.125    -7.819    -0.694    -89.93
   H2O             5.551e+01   8.514e-01     1.744    -0.070     0.000     18.09
Ba            1.971e-04
   Ba+2            1.971e-04   9.602e-05    -3.705    -4.018    -0.312     -7.54
C(4)          1.276e-02
   HCO3-           8.264e-03   4.239e-03    -2.083    -2.373    -0.290    119.27
   CO2             4.428e-03   8.634e-03    -2.354    -2.064     0.290    112.97
   CO3-2           4.333e-05   2.693e-07    -4.363    -6.570    -2.206      6.88
   MgCO3           2.325e-05   2.325e-05    -4.634    -4.634     0.000    -17.08
Ca            4.378e-01
   Ca+2            4.378e-01   4.102e-01    -0.359    -0.387    -0.028    -14.60
Cl            3.959e+00
   Cl-             3.959e+00   2.345e+00     0.598     0.370    -0.227     19.99
K             1.853e-01
   K+              1.853e-01   1.314e-01    -0.732    -0.882    -0.149     11.56
Mg            7.716e-02
   Mg+2            7.714e-02   9.474e-02    -1.113    -1.023     0.089    -18.49
   MgCO3           2.325e-05   2.325e-05    -4.634    -4.634     0.000    -17.08
   MgOH+           2.973e-07   2.360e-07    -6.527    -6.627    -0.100     (0)  
Mth           2.061e-03
   Mth             2.061e-03   2.061e-03    -2.686    -2.686     0.000     (0)  
Na            2.941e+00
   Na+             2.941e+00   3.436e+00     0.468     0.536     0.068      1.04
Ng            8.818e-05
   Ng              8.818e-05   8.818e-05    -4.055    -4.055     0.000     (0)  
S(6)          1.281e-03
   SO4-2           1.281e-03   9.851e-06    -2.892    -5.007    -2.114     25.20
   HSO4-           1.895e-09   8.718e-10    -8.722    -9.060    -0.337     42.20
Sg            6.217e-04
   HSg-            3.552e-04   6.629e-05    -3.449    -4.179    -0.729     (0)  
   H2Sg            2.664e-04   4.094e-04    -3.574    -3.388     0.187     (0)  
   (H2Sg)2         8.185e-09   9.955e-09    -8.087    -8.002     0.085     29.92
   Sg-2            7.414e-09   1.376e-11    -8.130   -10.861    -2.731     (0)  
Sr            1.470e-02
   Sr+2            1.470e-02   1.076e-02    -1.833    -1.968    -0.136    -13.86

------------------------------Saturation indices-------------------------------

  Phase               SI** log IAP   log K(303 K,   2 atm)

  Anhydrite        -1.08     -5.39   -4.32  CaSO4
  Aragonite         1.30     -6.96   -8.25  CaCO3
  Arcanite         -4.95     -6.77   -1.82  K2SO4
  Artinite         -5.79     13.50   19.28  Mg2CO3(OH)2:3H2O
  Barite            0.83     -9.02   -9.85  BaSO4
  Bischofite       -5.23     -0.70    4.53  MgCl2:6H2O
  Bloedite         -7.90    -10.24   -2.35  Na2Mg(SO4)2:4H2O
  Brucite          -5.84    -16.66  -10.82  Mg(OH)2
  Burkeite        -12.60    -13.37   -0.77  Na6CO3(SO4)2
  Calcite           1.55     -6.96   -8.51  CaCO3
  Carnallite       -5.65     -1.21    4.44  KMgCl3:6H2O
  Celestite        -0.29     -6.97   -6.68  SrSO4
  CO2(g)           -0.54     -2.06   -1.53  CO2	 Pressure   0.3 atm, phi 0.990
  Dolomite          2.67    -14.55  -17.22  CaMg(CO3)2
  Epsomite         -4.71     -6.52   -1.81  MgSO4:7H2O
  Gaylussite       -3.38    -12.80   -9.42  CaNa2(CO3)2:5H2O
  Glaserite        -8.39    -12.12   -3.73  NaK3(SO4)2
  Glauberite       -3.93     -9.33   -5.40  Na2Ca(SO4)2
  Goergeyite       -4.68    -33.81  -29.13  K2Ca5(SO4)6H2O
  Gypsum           -0.93     -5.53   -4.61  CaSO4:2H2O
  H2O(g)           -1.45     -0.07    1.38  H2O	 Pressure   0.0 atm, phi 0.980
  H2Sg(g)          -2.29    -10.27   -7.98  H2Sg	 Pressure   0.0 atm, phi 0.987
  Halite           -0.69      0.91    1.59  NaCl
  Hexahydrite      -4.87     -6.45   -1.58  MgSO4:6H2O
  Huntite           1.71     11.41    9.70  CaMg3(CO3)4
  Kainite          -6.56     -6.75   -0.19  KMgClSO4:3H2O
  Kalicinite       -3.60    -13.54   -9.94  KHCO3
  Kieserite        -5.74     -6.10   -0.36  MgSO4:H2O
  Labile_S         -7.73    -13.40   -5.67  Na4Ca(SO4)3:2H2O
  Leonhardite      -5.42     -6.31   -0.89  MgSO4:4H2O
  Leonite          -9.10    -13.08   -3.98  K2Mg(SO4)2:4H2O
  Magnesite         0.26     -7.59   -7.85  MgCO3
  MgCl2_2H2O      -14.57     -0.42   14.15  MgCl2:2H2O
  MgCl2_4H2O       -7.44     -0.56    6.88  MgCl2:4H2O
  Mirabilite       -3.60     -4.63   -1.03  Na2SO4:10H2O
  Misenite        -67.82    -78.63  -10.81  K8H6(SO4)7
  Mth(g)            0.19     -2.69   -2.88  Mth	 Pressure   1.6 atm, phi 0.996
  Nahcolite        -1.38    -12.12  -10.74  NaHCO3
  Natron           -5.37     -6.20   -0.83  Na2CO3:10H2O
  Nesquehonite     -2.64     -7.80   -5.17  MgCO3:3H2O
  Ng(g)            -0.85     -4.05   -3.20  Ng	 Pressure   0.1 atm, phi 1.000
  Pentahydrite     -5.09     -6.38   -1.29  MgSO4:5H2O
  Pirssonite       -3.36    -12.59   -9.23  Na2Ca(CO3)2:2H2O
  Polyhalite       -9.98    -23.73  -13.74  K2MgCa2(SO4)4:2H2O
  Portlandite     -10.84    -16.02   -5.19  Ca(OH)2
  Schoenite        -8.89    -13.22   -4.33  K2Mg(SO4)2:6H2O
  Strontianite      0.74     -8.54   -9.28  SrCO3
  Sylvite          -1.46     -0.51    0.95  KCl
  Syngenite        -5.71    -12.23   -6.52  K2Ca(SO4)2:H2O
  Thenardite       -3.61     -3.93   -0.32  Na2SO4
  Trona            -6.38    -17.76  -11.38  Na3H(CO3)2:2H2O

**For a gas, SI = log10(fugacity). Fugacity = pressure * phi / 1 atm.
  For ideal gases, phi = 1.

------------------
End of simulation.
------------------

------------------------------------
Reading input data for simulation 4.
------------------------------------

