WARNING: Database file from DATABASE keyword is used; command line argument ignored.
   Input file: PR_mx_new
  Output file: PR_mx_new.out
Database file: ../database/phreeqc.dat

------------------
Reading data base.
------------------

	SOLUTION_MASTER_SPECIES
	SOLUTION_SPECIES
	PHASES
	GAS_BINARY_PARAMETERS
	EXCHANGE_MASTER_SPECIES
	EXCHANGE_SPECIES
	SURFACE_MASTER_SPECIES
	SURFACE_SPECIES
	MEAN_GAMMAS
	RATES
	END
------------------------------------
Reading input data for simulation 1.
------------------------------------

	DATABASE ../database/phreeqc.dat
	SELECTED_OUTPUT 101
	    file                 PR_mx_new_101.sel
	USER_PUNCH 101
	    headings Mu SC
	    start
	10 PUNCH STR_F$(MU, 20, 12)
	20 PUNCH STR_F$(SC, 20, 10)
	    end
	SOLUTION 1
	GAS_PHASE 1
	 fixed_volume
	 CH4(g) 0
	 CO2(g) 0
	 N2(g) 0
	 H2O(g) 0
	REACTION 1
	 CO2N2CH4 1
	 0.01 13*0.5
	INCREMENTAL_REACTIONS true
	USER_GRAPH 1 fugacity coeff's
	 -headings P f_H2O f_CO2 f_N2 f_CH4 sys_C sys_N
	 -axis_titles "Total Pressure / atm" "PR fugacity coefficient" "mol"
	 -axis_scale x_axis 0 500
	 10 x = pressure
	 12 if x > 500 then goto 400
	 20 graph_x x
	 30 graph_y pr_phi("H2O(g)"), pr_phi("CO2(g)"), pr_phi("N2(g)"), pr_phi("CH4(g)")
	 40 graph_sy sys("C"), sys("N")
	400 end
	USER_GRAPH 2 Gas pressures
	 -headings P P_H2O P_CO2 P_N2 P_CH4 m_CO2 m_N2 m_CH4
	 -axis_titles "Total Pressure / atm" "(individual) Gas Pressure / atm" "mol/L"
	 -axis_scale x_axis 0 500
	 10 x = gas_p
	 12 if x > 500 then goto 400
	 20 graph_x x
	 30 graph_y pr_p("H2O(g)"), pr_p("CO2(g)"), pr_p("N2(g)"), pr_p("CH4(g)")
	 40 graph_sy tot("C(4)"), tot("N(0)"), tot("C(-4)")
	400 print 'temp (oC) = ', trim(str$(tc)), '. step ', trim(str$(step_no))
	404 mol_gas = gas("H2O(g)") + gas("CO2(g)") + gas("N2(g)") + gas("CH4(g)")
	410 print 'P = ', str$(x), 'V_m = ', 1 / mol_gas, ' z = P * V_m / (R * TK) = ', x / (mol_gas * 0.0820575 * TK)
	430 print '  fugacities:     f_H2O = ', pr_phi("H2O(g)"), 'f_CO2 =', pr_phi("CO2(g)"), 'f_N2 =', pr_phi("N2(g)"), 'f_CH4 =', pr_phi("CH4(g)")
	420 print '  moles in gas:   m_H2O = ', gas("H2O(g)"), 'm_CO2 =', gas("CO2(g)"), 'm_N2 =', gas("N2(g)"), 'm_CH4 =', gas("CH4(g)")
	440 end
	END
-------------------------------------------
Beginning of initial solution calculations.
-------------------------------------------

Initial solution 1.	

-----------------------------Solution composition------------------------------

	Elements           Molality       Moles

	Pure water     

----------------------------Description of solution----------------------------

                                       pH  =   7.000    
                                       pe  =   4.000    
      Specific Conductance (µS/cm,  25°C)  = 0
                          Density (g/cm³)  =   0.99704
                               Volume (L)  =   1.00297
                        Viscosity (mPa s)  =   0.89002
                        Activity of water  =   1.000
                 Ionic strength (mol/kgw)  =   1.007e-07
                       Mass of water (kg)  =   1.000e+00
                 Total alkalinity (eq/kg)  =   1.217e-09
                         Temperature (°C)  =  25.00
                  Electrical balance (eq)  =  -1.217e-09
 Percent error, 100*(Cat-|An|)/(Cat+|An|)  =  -0.60
                               Iterations  =   0
                                  Total H  = 1.110124e+02
                                  Total O  = 5.550622e+01

----------------------------Distribution of species----------------------------

                                               Log       Log       Log    mole V
   Species          Molality    Activity  Molality  Activity     Gamma   cm³/mol

   OH-             1.013e-07   1.012e-07    -6.995    -6.995    -0.000     -4.14
   H+              1.001e-07   1.000e-07    -7.000    -7.000    -0.000      0.00
   H2O             5.551e+01   1.000e+00     1.744     0.000     0.000     18.07
H(0)          1.416e-25
   H2              7.079e-26   7.079e-26   -25.150   -25.150     0.000     14.99
O(0)          0.000e+00
   O2              0.000e+00   0.000e+00   -42.063   -42.063     0.000     30.40

------------------------------Saturation indices-------------------------------

  Phase               SI** log IAP   log K(298 K,   1 atm)

  H2(g)           -22.05    -25.15   -3.10  H2
  H2O(g)           -1.50      0.00    1.50  H2O
  O2(g)           -39.17    -42.06   -2.89  O2

**For a gas, SI = log10(fugacity). Fugacity = pressure * phi / 1 atm.
  For ideal gases, phi = 1.

-----------------------------------------
Beginning of batch-reaction calculations.
-----------------------------------------

Reaction step 1.

Using solution 1.	
Using gas phase 1.	
Using reaction 1.	

Reaction 1.	

	  1.000e-02 moles of the following reaction have been added:

	                 Relative
	Reactant            moles

	CO2N2CH4             1.00000

	                 Relative
	Element             moles
	C                    2.00000
	H                    4.00000
	N                    2.00000
	O                    2.00000

-----------------------------------Gas phase-----------------------------------

Total pressure:  0.51      atmospheres          (Peng-Robinson calculation)
    Gas volume:   1.00e+00 liters
  Molar volume:   4.76e+01 liters/mole
   P * Vm / RT:  0.99889  (Compressibility Factor Z) 

                                                        Moles in gas
                                            ----------------------------------
Component         log P           P    phi     Initial       Final       Delta

CH4(g)            -0.71   1.966e-01  0.999   0.000e+00   8.046e-03   8.046e-03
CO2(g)            -1.01   9.710e-02  0.997   0.000e+00   3.973e-03   3.973e-03
H2O(g)            -1.50   3.151e-02  0.997   0.000e+00   1.289e-03   1.289e-03
N2(g)             -0.73   1.878e-01  1.000   0.000e+00   7.682e-03   7.682e-03

-----------------------------Solution composition------------------------------

	Elements           Molality       Moles

	C                 7.982e-03   7.981e-03
	N                 4.636e-03   4.635e-03

----------------------------Description of solution----------------------------

                                       pH  =   6.445      Charge balance
                                       pe  =  -3.268      Adjusted to redox equilibrium
      Specific Conductance (µS/cm,  25°C)  = 493
                          Density (g/cm³)  =   0.99721
                               Volume (L)  =   1.00314
                        Viscosity (mPa s)  =   0.89086
                        Activity of water  =   1.000
                 Ionic strength (mol/kgw)  =   4.380e-03
                       Mass of water (kg)  =   9.998e-01
                 Total alkalinity (eq/kg)  =   4.386e-03
                       Total CO2 (mol/kg)  =   7.672e-03
                         Temperature (°C)  =  25.00
                           Pressure (atm)  =  0.51
                  Electrical balance (eq)  =  -1.217e-09
 Percent error, 100*(Cat-|An|)/(Cat+|An|)  =  -0.00
                               Iterations  =  36
                                  Total H  = 1.110177e+02
                                  Total O  = 5.551698e+01

----------------------------Distribution of species----------------------------

                                               Log       Log       Log    mole V
   Species          Molality    Activity  Molality  Activity     Gamma   cm³/mol

   H+              3.829e-07   3.588e-07    -6.417    -6.445    -0.028      0.00
   OH-             3.032e-08   2.820e-08    -7.518    -7.550    -0.031     -4.07
   H2O             5.551e+01   9.998e-01     1.744    -0.000     0.000     18.07
C(-4)         3.097e-04
   CH4             3.097e-04   3.100e-04    -3.509    -3.509     0.000     35.45
C(4)          7.672e-03
   HCO3-           4.378e-03   4.084e-03    -2.359    -2.389    -0.030     24.62
   CO2             3.293e-03   3.295e-03    -2.482    -2.482     0.000     34.79
   CO3-2           7.051e-07   5.338e-07    -6.152    -6.273    -0.121     -4.52
   (CO2)2          1.764e-07   1.766e-07    -6.753    -6.753     0.000     68.75
H(0)          6.256e-10
   H2              3.128e-10   3.131e-10    -9.505    -9.504     0.000     14.99
N(-3)         4.386e-03
   NH4+            4.379e-03   4.068e-03    -2.359    -2.391    -0.032     17.93
   NH3             6.455e-06   6.461e-06    -5.190    -5.190     0.000     24.42
N(0)          2.503e-04
   N2              1.251e-04   1.253e-04    -3.903    -3.902     0.000     29.29
N(3)          0.000e+00
   NO2-            0.000e+00   0.000e+00   -60.913   -60.945    -0.032     25.00
N(5)          0.000e+00
   NO3-            0.000e+00   0.000e+00   -83.129   -83.161    -0.032     29.52
O(0)          0.000e+00
   O2              0.000e+00   0.000e+00   -73.355   -73.354     0.000     30.40

------------------------------Saturation indices-------------------------------

  Phase               SI** log IAP   log K(298 K,   1 atm)

  CH4(g)           -0.71     -3.51   -2.80  CH4	 Pressure   0.2 atm, phi 0.999
  CO2(g)           -1.01     -2.48   -1.47  CO2	 Pressure   0.1 atm, phi 0.997
  H2(g)            -6.40     -9.50   -3.10  H2
  H2O(g)           -1.50     -0.00    1.50  H2O	 Pressure   0.0 atm, phi 0.997
  N2(g)            -0.73     -3.90   -3.18  N2	 Pressure   0.2 atm, phi 1.000
  NH3(g)           -6.99     -5.19    1.80  NH3
  O2(g)           -70.46    -73.35   -2.89  O2

**For a gas, SI = log10(fugacity). Fugacity = pressure * phi / 1 atm.
  For ideal gases, phi = 1.

Reaction step 2.

Using solution 1.	
Using gas phase 1.	
Using reaction 1.	

Reaction 1.	

	  5.000e-01 moles of the following reaction have been added:

	                 Relative
	Reactant            moles

	CO2N2CH4             1.00000

	                 Relative
	Element             moles
	C                    2.00000
	H                    4.00000
	N                    2.00000
	O                    2.00000

-----------------------------------Gas phase-----------------------------------

Total pressure: 27.25      atmospheres          (Peng-Robinson calculation)
    Gas volume:   1.00e+00 liters
  Molar volume:   8.50e-01 liters/mole
   P * Vm / RT:  0.94710  (Compressibility Factor Z) 

                                                        Moles in gas
                                            ----------------------------------
Component         log P           P    phi     Initial       Final       Delta

CH4(g)             1.02   1.056e+01  0.942   8.046e-03   4.557e-01   4.477e-01
CO2(g)             0.79   6.215e+00  0.875   3.973e-03   2.682e-01   2.642e-01
H2O(g)            -1.44   3.633e-02  0.876   1.289e-03   1.568e-03   2.785e-04
N2(g)              1.02   1.044e+01  0.999   7.682e-03   4.507e-01   4.430e-01

-----------------------------Solution composition------------------------------

	Elements           Molality       Moles

	C                 2.971e-01   2.961e-01
	N                 1.191e-01   1.187e-01

----------------------------Description of solution----------------------------

                                       pH  =   6.012      Charge balance
                                       pe  =  -2.830      Adjusted to redox equilibrium
      Specific Conductance (µS/cm,  25°C)  = 10449
                          Density (g/cm³)  =   1.00326
                               Volume (L)  =   1.00986
                        Viscosity (mPa s)  =   0.90889
                        Activity of water  =   0.993
                 Ionic strength (mol/kgw)  =   1.059e-01
                       Mass of water (kg)  =   9.966e-01
                 Total alkalinity (eq/kg)  =   1.059e-01
                       Total CO2 (mol/kg)  =   2.823e-01
                         Temperature (°C)  =  25.00
                           Pressure (atm)  = 27.25
                  Electrical balance (eq)  =  -6.892e-10
 Percent error, 100*(Cat-|An|)/(Cat+|An|)  =  -0.00
                               Iterations  =  31
                                  Total H  = 1.112264e+02
                                  Total O  = 5.598825e+01

----------------------------Distribution of species----------------------------

                                               Log       Log       Log    mole V
   Species          Molality    Activity  Molality  Activity     Gamma   cm³/mol

   H+              1.183e-06   9.738e-07    -5.927    -6.012    -0.084      0.00
   OH-             1.395e-08   1.056e-08    -7.856    -7.976    -0.121     -3.62
   H2O             5.551e+01   9.930e-01     1.744    -0.003     0.000     18.05
C(-4)         1.474e-02
   CH4             1.474e-02   1.511e-02    -1.831    -1.821     0.011     35.49
C(4)          2.823e-01
   CO2             1.754e-01   1.783e-01    -0.756    -0.749     0.007     34.77
   HCO3-           1.059e-01   8.327e-02    -0.975    -1.080    -0.104     25.50
   (CO2)2          5.090e-04   5.172e-04    -3.293    -3.286     0.007     68.69
   CO3-2           1.089e-05   4.135e-06    -4.963    -5.384    -0.420     -2.99
H(0)          5.890e-10
   H2              2.945e-10   3.022e-10    -9.531    -9.520     0.011     15.01
N(-3)         1.059e-01
   NH4+            1.059e-01   7.835e-02    -0.975    -1.106    -0.131     18.21
   NH3             4.445e-05   4.555e-05    -4.352    -4.342     0.011     24.46
N(0)          1.316e-02
   N2              6.580e-03   6.743e-03    -2.182    -2.171     0.011     29.29
N(3)          0.000e+00
   NO2-            0.000e+00   0.000e+00   -60.369   -60.494    -0.126     25.24
N(5)          0.000e+00
   NO3-            0.000e+00   0.000e+00   -82.572   -82.698    -0.126     29.74
O(0)          0.000e+00
   O2              0.000e+00   0.000e+00   -73.351   -73.340     0.011     30.36

------------------------------Saturation indices-------------------------------

  Phase               SI** log IAP   log K(298 K,  27 atm)

  CH4(g)            1.00     -1.82   -2.82  CH4	 Pressure  10.6 atm, phi 0.942
  CO2(g)            0.74     -0.75   -1.48  CO2	 Pressure   6.2 atm, phi 0.875
  H2(g)            -6.41     -9.52   -3.11  H2
  H2O(g)           -1.50     -0.00    1.49  H2O	 Pressure   0.0 atm, phi 0.876
  N2(g)             1.02     -2.17   -3.19  N2	 Pressure  10.4 atm, phi 0.999
  NH3(g)           -6.13     -4.34    1.78  NH3
  O2(g)           -70.43    -73.34   -2.91  O2

**For a gas, SI = log10(fugacity). Fugacity = pressure * phi / 1 atm.
  For ideal gases, phi = 1.

Reaction step 3.

Using solution 1.	
Using gas phase 1.	
Using reaction 1.	

Reaction 1.	

	  5.000e-01 moles of the following reaction have been added:

	                 Relative
	Reactant            moles

	CO2N2CH4             1.00000

	                 Relative
	Element             moles
	C                    2.00000
	H                    4.00000
	N                    2.00000
	O                    2.00000

-----------------------------------Gas phase-----------------------------------

Total pressure: 53.34      atmospheres          (Peng-Robinson calculation)
    Gas volume:   1.00e+00 liters
  Molar volume:   4.13e-01 liters/mole
   P * Vm / RT:  0.89969  (Compressibility Factor Z) 

                                                        Moles in gas
                                            ----------------------------------
Component         log P           P    phi     Initial       Final       Delta

CH4(g)             1.31   2.023e+01  0.892   4.557e-01   9.193e-01   4.635e-01
CO2(g)             1.11   1.302e+01  0.769   2.682e-01   5.915e-01   3.233e-01
H2O(g)            -1.37   4.218e-02  0.765   1.568e-03   1.916e-03   3.488e-04
N2(g)              1.30   2.004e+01  1.003   4.507e-01   9.106e-01   4.599e-01

-----------------------------Solution composition------------------------------

	Elements           Molality       Moles

	C                 5.121e-01   5.093e-01
	N                 1.999e-01   1.988e-01

----------------------------Description of solution----------------------------

                                       pH  =   5.956      Charge balance
                                       pe  =  -2.775      Adjusted to redox equilibrium
      Specific Conductance (µS/cm,  25°C)  = 16766
                          Density (g/cm³)  =   1.00772
                               Volume (L)  =   1.01479
                        Viscosity (mPa s)  =   0.92183
                        Activity of water  =   0.988
                 Ionic strength (mol/kgw)  =   1.757e-01
                       Mass of water (kg)  =   9.945e-01
                 Total alkalinity (eq/kg)  =   1.757e-01
                       Total CO2 (mol/kg)  =   4.868e-01
                         Temperature (°C)  =  25.00
                           Pressure (atm)  = 53.34
                  Electrical balance (eq)  =  -3.135e-10
 Percent error, 100*(Cat-|An|)/(Cat+|An|)  =  -0.00
                               Iterations  =  27
                                  Total H  = 1.113716e+02
                                  Total O  = 5.634140e+01

----------------------------Distribution of species----------------------------

                                               Log       Log       Log    mole V
   Species          Molality    Activity  Molality  Activity     Gamma   cm³/mol

   H+              1.379e-06   1.107e-06    -5.861    -5.956    -0.095      0.00
   OH-             1.317e-08   9.456e-09    -7.880    -8.024    -0.144     -3.36
   H2O             5.551e+01   9.881e-01     1.744    -0.005     0.000     18.03
C(-4)         2.535e-02
   CH4             2.535e-02   2.639e-02    -1.596    -1.579     0.018     35.53
C(4)          4.868e-01
   CO2             3.079e-01   3.163e-01    -0.512    -0.500     0.012     34.74
   HCO3-           1.756e-01   1.330e-01    -0.755    -0.876    -0.121     25.97
   (CO2)2          1.586e-03   1.629e-03    -2.800    -2.788     0.012     68.64
   CO3-2           1.845e-05   5.983e-06    -4.734    -5.223    -0.489     -2.29
H(0)          5.720e-10
   H2              2.860e-10   2.984e-10    -9.544    -9.525     0.018     15.03
N(-3)         1.757e-01
   NH4+            1.757e-01   1.219e-01    -0.755    -0.914    -0.159     18.33
   NH3             5.948e-05   6.193e-05    -4.226    -4.208     0.018     24.51
N(0)          2.420e-02
   N2              1.210e-02   1.260e-02    -1.917    -1.900     0.018     29.29
N(3)          0.000e+00
   NO2-            0.000e+00   0.000e+00   -60.258   -60.409    -0.151     25.32
N(5)          0.000e+00
   NO3-            0.000e+00   0.000e+00   -82.459   -82.610    -0.151     29.80
O(0)          0.000e+00
   O2              0.000e+00   0.000e+00   -73.363   -73.345     0.018     30.32

------------------------------Saturation indices-------------------------------

  Phase               SI** log IAP   log K(298 K,  53 atm)

  CH4(g)            1.26     -1.58   -2.83  CH4	 Pressure  20.2 atm, phi 0.892
  CO2(g)            1.00     -0.50   -1.50  CO2	 Pressure  13.0 atm, phi 0.769
  H2(g)            -6.41     -9.53   -3.11  H2
  H2O(g)           -1.49     -0.01    1.49  H2O	 Pressure   0.0 atm, phi 0.765
  N2(g)             1.30     -1.90   -3.20  N2	 Pressure  20.0 atm, phi 1.003
  NH3(g)           -5.98     -4.21    1.77  NH3
  O2(g)           -70.42    -73.35   -2.92  O2

**For a gas, SI = log10(fugacity). Fugacity = pressure * phi / 1 atm.
  For ideal gases, phi = 1.

Reaction step 4.

Using solution 1.	
Using gas phase 1.	
Using reaction 1.	

Reaction 1.	

	  5.000e-01 moles of the following reaction have been added:

	                 Relative
	Reactant            moles

	CO2N2CH4             1.00000

	                 Relative
	Element             moles
	C                    2.00000
	H                    4.00000
	N                    2.00000
	O                    2.00000

-----------------------------------Gas phase-----------------------------------

Total pressure: 78.46      atmospheres          (Peng-Robinson calculation)
    Gas volume:   1.00e+00 liters
  Molar volume:   2.68e-01 liters/mole
   P * Vm / RT:  0.85904  (Compressibility Factor Z) 

                                                        Moles in gas
                                            ----------------------------------
Component         log P           P    phi     Initial       Final       Delta

CH4(g)             1.47   2.924e+01  0.849   9.193e-01   1.391e+00   4.720e-01
CO2(g)             1.31   2.020e+01  0.679   5.915e-01   9.609e-01   3.694e-01
H2O(g)            -1.31   4.907e-02  0.667   1.916e-03   2.335e-03   4.185e-04
N2(g)              1.46   2.898e+01  1.013   9.106e-01   1.379e+00   4.682e-01

-----------------------------Solution composition------------------------------

	Elements           Molality       Moles

	C                 6.728e-01   6.679e-01
	N                 2.643e-01   2.624e-01

----------------------------Description of solution----------------------------

                                       pH  =   5.934      Charge balance
                                       pe  =  -2.755      Adjusted to redox equilibrium
      Specific Conductance (µS/cm,  25°C)  = 21608
                          Density (g/cm³)  =   1.01127
                               Volume (L)  =   1.01823
                        Viscosity (mPa s)  =   0.93136
                        Activity of water  =   0.984
                 Ionic strength (mol/kgw)  =   2.304e-01
                       Mass of water (kg)  =   9.927e-01
                 Total alkalinity (eq/kg)  =   2.305e-01
                       Total CO2 (mol/kg)  =   6.396e-01
                         Temperature (°C)  =  25.00
                           Pressure (atm)  = 78.46
                  Electrical balance (eq)  =  -5.691e-11
 Percent error, 100*(Cat-|An|)/(Cat+|An|)  =  -0.00
                               Iterations  =  27
                                  Total H  = 1.114828e+02
                                  Total O  = 5.660212e+01

----------------------------Distribution of species----------------------------

                                               Log       Log       Log    mole V
   Species          Molality    Activity  Molality  Activity     Gamma   cm³/mol

   H+              1.470e-06   1.165e-06    -5.833    -5.934    -0.101      0.00
   OH-             1.313e-08   9.145e-09    -7.882    -8.039    -0.157     -3.16
   H2O             5.551e+01   9.844e-01     1.744    -0.007     0.000     18.01
C(-4)         3.320e-02
   CH4             3.320e-02   3.501e-02    -1.479    -1.456     0.023     35.56
C(4)          6.396e-01
   CO2             4.037e-01   4.181e-01    -0.394    -0.379     0.015     34.71
   HCO3-           2.304e-01   1.708e-01    -0.638    -0.768    -0.130     26.32
   (CO2)2          2.751e-03   2.849e-03    -2.561    -2.545     0.015     68.58
   CO3-2           2.528e-05   7.514e-06    -4.597    -5.124    -0.527     -1.77
H(0)          5.605e-10
   H2              2.802e-10   2.963e-10    -9.552    -9.528     0.024     15.04
N(-3)         2.305e-01
   NH4+            2.304e-01   1.540e-01    -0.637    -0.812    -0.175     18.42
   NH3             7.007e-05   7.388e-05    -4.154    -4.131     0.023     24.55
N(0)          3.385e-02
   N2              1.692e-02   1.785e-02    -1.772    -1.748     0.023     29.29
N(3)          0.000e+00
   NO2-            0.000e+00   0.000e+00   -60.188   -60.353    -0.166     25.36
N(5)          0.000e+00
   NO3-            0.000e+00   0.000e+00   -82.388   -82.554    -0.166     29.83
O(0)          0.000e+00
   O2              0.000e+00   0.000e+00   -73.376   -73.353     0.023     30.29

------------------------------Saturation indices-------------------------------

  Phase               SI** log IAP   log K(298 K,  78 atm)

  CH4(g)            1.39     -1.46   -2.85  CH4	 Pressure  29.2 atm, phi 0.849
  CO2(g)            1.14     -0.38   -1.52  CO2	 Pressure  20.2 atm, phi 0.679
  H2(g)            -6.41     -9.53   -3.12  H2
  H2O(g)           -1.48     -0.01    1.48  H2O	 Pressure   0.0 atm, phi 0.667
  N2(g)             1.47     -1.75   -3.22  N2	 Pressure  29.0 atm, phi 1.013
  NH3(g)           -5.89     -4.13    1.76  NH3
  O2(g)           -70.42    -73.35   -2.93  O2

**For a gas, SI = log10(fugacity). Fugacity = pressure * phi / 1 atm.
  For ideal gases, phi = 1.

Reaction step 5.

Using solution 1.	
Using gas phase 1.	
Using reaction 1.	

Reaction 1.	

	  5.000e-01 moles of the following reaction have been added:

	                 Relative
	Reactant            moles

	CO2N2CH4             1.00000

	                 Relative
	Element             moles
	C                    2.00000
	H                    4.00000
	N                    2.00000
	O                    2.00000

-----------------------------------Gas phase-----------------------------------

Total pressure: 102.91      atmospheres          (Peng-Robinson calculation)
    Gas volume:   1.00e+00 liters
  Molar volume:   1.96e-01 liters/mole
   P * Vm / RT:  0.82640  (Compressibility Factor Z) 

                                                        Moles in gas
                                            ----------------------------------
Component         log P           P    phi     Initial       Final       Delta

CH4(g)             1.58   3.778e+01  0.813   1.391e+00   1.869e+00   4.776e-01
CO2(g)             1.44   2.762e+01  0.603   9.609e-01   1.366e+00   4.050e-01
H2O(g)            -1.24   5.707e-02  0.582   2.335e-03   2.822e-03   4.876e-04
N2(g)              1.57   3.745e+01  1.026   1.379e+00   1.852e+00   4.736e-01

-----------------------------Solution composition------------------------------

	Elements           Molality       Moles

	C                 7.922e-01   7.854e-01
	N                 3.179e-01   3.151e-01

----------------------------Description of solution----------------------------

                                       pH  =   5.926      Charge balance
                                       pe  =  -2.750      Adjusted to redox equilibrium
      Specific Conductance (µS/cm,  25°C)  = 25547
                          Density (g/cm³)  =   1.01420
                               Volume (L)  =   1.02049
                        Viscosity (mPa s)  =   0.93832
                        Activity of water  =   0.982
                 Ionic strength (mol/kgw)  =   2.752e-01
                       Mass of water (kg)  =   9.913e-01
                 Total alkalinity (eq/kg)  =   2.753e-01
                       Total CO2 (mol/kg)  =   7.530e-01
                         Temperature (°C)  =  25.00
                           Pressure (atm)  = 102.91
                  Electrical balance (eq)  =   1.905e-10
 Percent error, 100*(Cat-|An|)/(Cat+|An|)  =   0.00
                               Iterations  =  27
                                  Total H  = 1.115716e+02
                                  Total O  = 5.679171e+01

----------------------------Distribution of species----------------------------

                                               Log       Log       Log    mole V
   Species          Molality    Activity  Molality  Activity     Gamma   cm³/mol

   H+              1.508e-06   1.186e-06    -5.822    -5.926    -0.104      0.00
   OH-             1.340e-08   9.143e-09    -7.873    -8.039    -0.166     -2.98
   H2O             5.551e+01   9.816e-01     1.744    -0.008     0.000     17.99
C(-4)         3.921e-02
   CH4             3.921e-02   4.178e-02    -1.407    -1.379     0.028     35.59
C(4)          7.530e-01
   CO2             4.703e-01   4.904e-01    -0.328    -0.309     0.018     34.68
   HCO3-           2.751e-01   2.013e-01    -0.560    -0.696    -0.136     26.61
   (CO2)2          3.763e-03   3.924e-03    -2.424    -2.406     0.018     68.53
   CO3-2           3.185e-05   8.943e-06    -4.497    -5.049    -0.552     -1.34
H(0)          5.528e-10
   H2              2.764e-10   2.954e-10    -9.558    -9.530     0.029     15.06
N(-3)         2.753e-01
   NH4+            2.752e-01   1.793e-01    -0.560    -0.746    -0.186     18.50
   NH3             7.885e-05   8.401e-05    -4.103    -4.076     0.028     24.59
N(0)          4.261e-02
   N2              2.131e-02   2.270e-02    -1.671    -1.644     0.028     29.29
N(3)          0.000e+00
   NO2-            0.000e+00   0.000e+00   -60.133   -60.308    -0.176     25.40
N(5)          0.000e+00
   NO3-            0.000e+00   0.000e+00   -82.334   -82.509    -0.176     29.84
O(0)          0.000e+00
   O2              0.000e+00   0.000e+00   -73.391   -73.364     0.028     30.25

------------------------------Saturation indices-------------------------------

  Phase               SI** log IAP   log K(298 K, 103 atm)

  CH4(g)            1.49     -1.38   -2.87  CH4	 Pressure  37.8 atm, phi 0.813
  CO2(g)            1.22     -0.31   -1.53  CO2	 Pressure  27.6 atm, phi 0.603
  H2(g)            -6.40     -9.53   -3.13  H2
  H2O(g)           -1.48     -0.01    1.47  H2O	 Pressure   0.1 atm, phi 0.582
  N2(g)             1.58     -1.64   -3.23  N2	 Pressure  37.5 atm, phi 1.026
  NH3(g)           -5.83     -4.08    1.75  NH3
  O2(g)           -70.42    -73.36   -2.95  O2

**For a gas, SI = log10(fugacity). Fugacity = pressure * phi / 1 atm.
  For ideal gases, phi = 1.

Reaction step 6.

Using solution 1.	
Using gas phase 1.	
Using reaction 1.	

Reaction 1.	

	  5.000e-01 moles of the following reaction have been added:

	                 Relative
	Reactant            moles

	CO2N2CH4             1.00000

	                 Relative
	Element             moles
	C                    2.00000
	H                    4.00000
	N                    2.00000
	O                    2.00000

-----------------------------------Gas phase-----------------------------------

Total pressure: 127.23      atmospheres          (Peng-Robinson calculation)
    Gas volume:   1.00e+00 liters
  Molar volume:   1.54e-01 liters/mole
   P * Vm / RT:  0.80254  (Compressibility Factor Z) 

                                                        Moles in gas
                                            ----------------------------------
Component         log P           P    phi     Initial       Final       Delta

CH4(g)             1.66   4.614e+01  0.781   1.869e+00   2.350e+00   4.812e-01
CO2(g)             1.55   3.528e+01  0.539   1.366e+00   1.797e+00   4.308e-01
H2O(g)            -1.18   6.627e-02  0.509   2.822e-03   3.375e-03   5.528e-04
N2(g)              1.66   4.574e+01  1.043   1.852e+00   2.330e+00   4.772e-01

-----------------------------Solution composition------------------------------

	Elements           Molality       Moles

	C                 8.821e-01   8.734e-01
	N                 3.644e-01   3.608e-01

----------------------------Description of solution----------------------------

                                       pH  =   5.926      Charge balance
                                       pe  =  -2.753      Adjusted to redox equilibrium
      Specific Conductance (µS/cm,  25°C)  = 28926
                          Density (g/cm³)  =   1.01671
                               Volume (L)  =   1.02188
                        Viscosity (mPa s)  =   0.94342
                        Activity of water  =   0.979
                 Ionic strength (mol/kgw)  =   3.135e-01
                       Mass of water (kg)  =   9.902e-01
                 Total alkalinity (eq/kg)  =   3.135e-01
                       Total CO2 (mol/kg)  =   8.380e-01
                         Temperature (°C)  =  25.00
                           Pressure (atm)  = 127.23
                  Electrical balance (eq)  =   3.990e-10
 Percent error, 100*(Cat-|An|)/(Cat+|An|)  =   0.00
                               Iterations  =  28
                                  Total H  = 1.116458e+02
                                  Total O  = 5.692960e+01

----------------------------Distribution of species----------------------------

                                               Log       Log       Log    mole V
   Species          Molality    Activity  Molality  Activity     Gamma   cm³/mol

   H+              1.516e-06   1.185e-06    -5.819    -5.926    -0.107      0.00
   OH-             1.386e-08   9.312e-09    -7.858    -8.031    -0.173     -2.83
   H2O             5.551e+01   9.793e-01     1.744    -0.009     0.000     17.97
C(-4)         4.405e-02
   CH4             4.405e-02   4.734e-02    -1.356    -1.325     0.031     35.62
C(4)          8.380e-01
   CO2             5.156e-01   5.407e-01    -0.288    -0.267     0.021     34.66
   HCO3-           3.133e-01   2.270e-01    -0.504    -0.644    -0.140     26.86
   (CO2)2          4.552e-03   4.774e-03    -2.342    -2.321     0.021     68.48
   CO3-2           3.850e-05   1.037e-05    -4.415    -4.984    -0.570     -0.96
H(0)          5.476e-10
   H2              2.738e-10   2.954e-10    -9.563    -9.530     0.033     15.08
N(-3)         3.135e-01
   NH4+            3.134e-01   2.003e-01    -0.504    -0.698    -0.194     18.56
   NH3             8.686e-05   9.337e-05    -4.061    -4.030     0.031     24.63
N(0)          5.091e-02
   N2              2.546e-02   2.736e-02    -1.594    -1.563     0.031     29.29
N(3)          0.000e+00
   NO2-            0.000e+00   0.000e+00   -60.085   -60.268    -0.183     25.42
N(5)          0.000e+00
   NO3-            0.000e+00   0.000e+00   -82.288   -82.471    -0.183     29.84
O(0)          0.000e+00
   O2              0.000e+00   0.000e+00   -73.408   -73.376     0.031     30.22

------------------------------Saturation indices-------------------------------

  Phase               SI** log IAP   log K(298 K, 127 atm)

  CH4(g)            1.56     -1.32   -2.88  CH4	 Pressure  46.1 atm, phi 0.781
  CO2(g)            1.28     -0.27   -1.55  CO2	 Pressure  35.3 atm, phi 0.539
  H2(g)            -6.40     -9.53   -3.13  H2
  H2O(g)           -1.47     -0.01    1.46  H2O	 Pressure   0.1 atm, phi 0.509
  N2(g)             1.68     -1.56   -3.24  N2	 Pressure  45.7 atm, phi 1.043
  NH3(g)           -5.77     -4.03    1.74  NH3
  O2(g)           -70.42    -73.38   -2.96  O2

**For a gas, SI = log10(fugacity). Fugacity = pressure * phi / 1 atm.
  For ideal gases, phi = 1.

Reaction step 7.

Using solution 1.	
Using gas phase 1.	
Using reaction 1.	

Reaction 1.	

	  5.000e-01 moles of the following reaction have been added:

	                 Relative
	Reactant            moles

	CO2N2CH4             1.00000

	                 Relative
	Element             moles
	C                    2.00000
	H                    4.00000
	N                    2.00000
	O                    2.00000

-----------------------------------Gas phase-----------------------------------

Total pressure: 152.13      atmospheres          (Peng-Robinson calculation)
    Gas volume:   1.00e+00 liters
  Molar volume:   1.27e-01 liters/mole
   P * Vm / RT:  0.78794  (Compressibility Factor Z) 

                                                        Moles in gas
                                            ----------------------------------
Component         log P           P    phi     Initial       Final       Delta

CH4(g)             1.74   5.462e+01  0.754   2.350e+00   2.833e+00   4.834e-01
CO2(g)             1.64   4.328e+01  0.484   1.797e+00   2.245e+00   4.486e-01
H2O(g)            -1.11   7.685e-02  0.446   3.375e-03   3.986e-03   6.110e-04
N2(g)              1.73   5.415e+01  1.061   2.330e+00   2.809e+00   4.792e-01

-----------------------------Solution composition------------------------------

	Elements           Molality       Moles

	C                 9.518e-01   9.414e-01
	N                 4.068e-01   4.024e-01

----------------------------Description of solution----------------------------

                                       pH  =   5.931      Charge balance
                                       pe  =  -2.762      Adjusted to redox equilibrium
      Specific Conductance (µS/cm,  25°C)  = 31983
                          Density (g/cm³)  =   1.01897
                               Volume (L)  =   1.02266
                        Viscosity (mPa s)  =   0.94725
                        Activity of water  =   0.977
                 Ionic strength (mol/kgw)  =   3.477e-01
                       Mass of water (kg)  =   9.891e-01
                 Total alkalinity (eq/kg)  =   3.478e-01
                       Total CO2 (mol/kg)  =   9.037e-01
                         Temperature (°C)  =  25.00
                           Pressure (atm)  = 152.13
                  Electrical balance (eq)  =   7.321e-10
 Percent error, 100*(Cat-|An|)/(Cat+|An|)  =   0.00
                               Iterations  =  29
                                  Total H  = 1.117109e+02
                                  Total O  = 5.703188e+01

----------------------------Distribution of species----------------------------

                                               Log       Log       Log    mole V
   Species          Molality    Activity  Molality  Activity     Gamma   cm³/mol

   H+              1.505e-06   1.172e-06    -5.822    -5.931    -0.109      0.00
   OH-             1.445e-08   9.592e-09    -7.840    -8.018    -0.178     -2.68
   H2O             5.551e+01   9.775e-01     1.744    -0.010     0.000     17.95
C(-4)         4.815e-02
   CH4             4.815e-02   5.216e-02    -1.317    -1.283     0.035     35.65
C(4)          9.037e-01
   CO2             5.458e-01   5.754e-01    -0.263    -0.240     0.023     34.63
   HCO3-           3.476e-01   2.499e-01    -0.459    -0.602    -0.143     27.08
   (CO2)2          5.132e-03   5.410e-03    -2.290    -2.267     0.023     68.43
   CO3-2           4.552e-05   1.187e-05    -4.342    -4.926    -0.584     -0.61
H(0)          5.440e-10
   H2              2.720e-10   2.959e-10    -9.565    -9.529     0.037     15.09
N(-3)         3.478e-01
   NH4+            3.477e-01   2.188e-01    -0.459    -0.660    -0.201     18.63
   NH3             9.463e-05   1.025e-04    -4.024    -3.989     0.035     24.66
N(0)          5.906e-02
   N2              2.953e-02   3.199e-02    -1.530    -1.495     0.035     29.29
N(3)          0.000e+00
   NO2-            0.000e+00   0.000e+00   -60.042   -60.231    -0.189     25.44
N(5)          0.000e+00
   NO3-            0.000e+00   0.000e+00   -82.247   -82.436    -0.189     29.84
O(0)          0.000e+00
   O2              0.000e+00   0.000e+00   -73.425   -73.390     0.035     30.19

------------------------------Saturation indices-------------------------------

  Phase               SI** log IAP   log K(298 K, 152 atm)

  CH4(g)            1.61     -1.28   -2.90  CH4	 Pressure  54.6 atm, phi 0.754
  CO2(g)            1.32     -0.24   -1.56  CO2	 Pressure  43.3 atm, phi 0.484
  H2(g)            -6.39     -9.53   -3.14  H2
  H2O(g)           -1.46     -0.01    1.45  H2O	 Pressure   0.1 atm, phi 0.446
  N2(g)             1.76     -1.49   -3.25  N2	 Pressure  54.1 atm, phi 1.061
  NH3(g)           -5.72     -3.99    1.73  NH3
  O2(g)           -70.42    -73.39   -2.97  O2

**For a gas, SI = log10(fugacity). Fugacity = pressure * phi / 1 atm.
  For ideal gases, phi = 1.

Reaction step 8.

Using solution 1.	
Using gas phase 1.	
Using reaction 1.	

Reaction 1.	

	  5.000e-01 moles of the following reaction have been added:

	                 Relative
	Reactant            moles

	CO2N2CH4             1.00000

	                 Relative
	Element             moles
	C                    2.00000
	H                    4.00000
	N                    2.00000
	O                    2.00000

-----------------------------------Gas phase-----------------------------------

Total pressure: 178.47      atmospheres          (Peng-Robinson calculation)
    Gas volume:   1.00e+00 liters
  Molar volume:   1.07e-01 liters/mole
   P * Vm / RT:  0.78293  (Compressibility Factor Z) 

                                                        Moles in gas
                                            ----------------------------------
Component         log P           P    phi     Initial       Final       Delta

CH4(g)             1.80   6.356e+01  0.730   2.833e+00   3.318e+00   4.846e-01
CO2(g)             1.71   5.182e+01  0.437   2.245e+00   2.705e+00   4.601e-01
H2O(g)            -1.05   8.899e-02  0.392   3.986e-03   4.646e-03   6.596e-04
N2(g)              1.80   6.300e+01  1.081   2.809e+00   3.289e+00   4.802e-01

-----------------------------Solution composition------------------------------

	Elements           Molality       Moles

	C                 1.009e+00   9.967e-01
	N                 4.474e-01   4.420e-01

----------------------------Description of solution----------------------------

                                       pH  =   5.939      Charge balance
                                       pe  =  -2.774      Adjusted to redox equilibrium
      Specific Conductance (µS/cm,  25°C)  = 34901
                          Density (g/cm³)  =   1.02112
                               Volume (L)  =   1.02299
                        Viscosity (mPa s)  =   0.95026
                        Activity of water  =   0.976
                 Ionic strength (mol/kgw)  =   3.800e-01
                       Mass of water (kg)  =   9.881e-01
                 Total alkalinity (eq/kg)  =   3.801e-01
                       Total CO2 (mol/kg)  =   9.569e-01
                         Temperature (°C)  =  25.00
                           Pressure (atm)  = 178.47
                  Electrical balance (eq)  =   1.508e-09
 Percent error, 100*(Cat-|An|)/(Cat+|An|)  =   0.00
                               Iterations  =  30
                                  Total H  = 1.117712e+02
                                  Total O  = 5.711092e+01

----------------------------Distribution of species----------------------------

                                               Log       Log       Log    mole V
   Species          Molality    Activity  Molality  Activity     Gamma   cm³/mol

   H+              1.485e-06   1.151e-06    -5.828    -5.939    -0.110      0.00
   OH-             1.515e-08   9.952e-09    -7.820    -8.002    -0.182     -2.54
   H2O             5.551e+01   9.759e-01     1.744    -0.011     0.000     17.93
C(-4)         5.181e-02
   CH4             5.181e-02   5.655e-02    -1.286    -1.248     0.038     35.69
C(4)          9.569e-01
   CO2             5.659e-01   5.995e-01    -0.247    -0.222     0.025     34.61
   HCO3-           3.799e-01   2.714e-01    -0.420    -0.566    -0.146     27.30
   (CO2)2          5.549e-03   5.879e-03    -2.256    -2.231     0.025     68.38
   CO3-2           5.322e-05   1.350e-05    -4.274    -4.870    -0.596     -0.26
H(0)          5.413e-10
   H2              2.706e-10   2.967e-10    -9.568    -9.528     0.040     15.11
N(-3)         3.801e-01
   NH4+            3.800e-01   2.359e-01    -0.420    -0.627    -0.207     18.69
   NH3             1.024e-04   1.118e-04    -3.990    -3.952     0.038     24.71
N(0)          6.731e-02
   N2              3.365e-02   3.673e-02    -1.473    -1.435     0.038     29.29
N(3)          0.000e+00
   NO2-            0.000e+00   0.000e+00   -60.002   -60.196    -0.194     25.46
N(5)          0.000e+00
   NO3-            0.000e+00   0.000e+00   -82.210   -82.404    -0.194     29.83
O(0)          0.000e+00
   O2              0.000e+00   0.000e+00   -73.444   -73.406     0.038     30.15

------------------------------Saturation indices-------------------------------

  Phase               SI** log IAP   log K(298 K, 178 atm)

  CH4(g)            1.67     -1.25   -2.91  CH4	 Pressure  63.6 atm, phi 0.730
  CO2(g)            1.36     -0.22   -1.58  CO2	 Pressure  51.8 atm, phi 0.437
  H2(g)            -6.38     -9.53   -3.15  H2
  H2O(g)           -1.46     -0.01    1.45  H2O	 Pressure   0.1 atm, phi 0.392
  N2(g)             1.83     -1.43   -3.27  N2	 Pressure  63.0 atm, phi 1.081
  NH3(g)           -5.67     -3.95    1.72  NH3
  O2(g)           -70.42    -73.41   -2.99  O2

**For a gas, SI = log10(fugacity). Fugacity = pressure * phi / 1 atm.
  For ideal gases, phi = 1.

Reaction step 9.

Using solution 1.	
Using gas phase 1.	
Using reaction 1.	

Reaction 1.	

	  5.000e-01 moles of the following reaction have been added:

	                 Relative
	Reactant            moles

	CO2N2CH4             1.00000

	                 Relative
	Element             moles
	C                    2.00000
	H                    4.00000
	N                    2.00000
	O                    2.00000

-----------------------------------Gas phase-----------------------------------

Total pressure: 207.22      atmospheres          (Peng-Robinson calculation)
    Gas volume:   1.00e+00 liters
  Molar volume:   9.30e-02 liters/mole
   P * Vm / RT:  0.78788  (Compressibility Factor Z) 

                                                        Moles in gas
                                            ----------------------------------
Component         log P           P    phi     Initial       Final       Delta

CH4(g)             1.87   7.331e+01  0.709   3.318e+00   3.803e+00   4.850e-01
CO2(g)             1.79   6.115e+01  0.397   2.705e+00   3.172e+00   4.672e-01
H2O(g)            -0.99   1.030e-01  0.346   4.646e-03   5.342e-03   6.962e-04
N2(g)              1.86   7.266e+01  1.101   3.289e+00   3.769e+00   4.802e-01

-----------------------------Solution composition------------------------------

	Elements           Molality       Moles

	C                 1.058e+00   1.045e+00
	N                 4.879e-01   4.816e-01

----------------------------Description of solution----------------------------

                                       pH  =   5.948      Charge balance
                                       pe  =  -2.787      Adjusted to redox equilibrium
      Specific Conductance (µS/cm,  25°C)  = 37825
                          Density (g/cm³)  =   1.02329
                               Volume (L)  =   1.02301
                        Viscosity (mPa s)  =   0.95278
                        Activity of water  =   0.974
                 Ionic strength (mol/kgw)  =   4.120e-01
                       Mass of water (kg)  =   9.871e-01
                 Total alkalinity (eq/kg)  =   4.120e-01
                       Total CO2 (mol/kg)  =   1.003e+00
                         Temperature (°C)  =  25.00
                           Pressure (atm)  = 207.22
                  Electrical balance (eq)  =   5.097e-09
 Percent error, 100*(Cat-|An|)/(Cat+|An|)  =   0.00
                               Iterations  =  30
                                  Total H  = 1.118299e+02
                                  Total O  = 5.717590e+01

----------------------------Distribution of species----------------------------

                                               Log       Log       Log    mole V
   Species          Molality    Activity  Molality  Activity     Gamma   cm³/mol

   H+              1.459e-06   1.128e-06    -5.836    -5.948    -0.112      0.00
   OH-             1.595e-08   1.038e-08    -7.797    -7.984    -0.187     -2.39
   H2O             5.551e+01   9.745e-01     1.744    -0.011     0.000     17.90
C(-4)         5.524e-02
   CH4             5.524e-02   6.073e-02    -1.258    -1.217     0.041     35.72
C(4)          1.003e+00
   CO2             5.794e-01   6.169e-01    -0.237    -0.210     0.027     34.58
   HCO3-           4.118e-01   2.926e-01    -0.385    -0.534    -0.148     27.52
   (CO2)2          5.852e-03   6.230e-03    -2.233    -2.206     0.027     68.32
   CO3-2           6.195e-05   1.534e-05    -4.208    -4.814    -0.606      0.09
H(0)          5.387e-10
   H2              2.693e-10   2.976e-10    -9.570    -9.526     0.043     15.12
N(-3)         4.120e-01
   NH4+            4.119e-01   2.527e-01    -0.385    -0.597    -0.212     18.76
   NH3             1.104e-04   1.214e-04    -3.957    -3.916     0.041     24.75
N(0)          7.584e-02
   N2              3.792e-02   4.169e-02    -1.421    -1.380     0.041     29.29
N(3)          0.000e+00
   NO2-            0.000e+00   0.000e+00   -59.963   -60.162    -0.199     25.47
N(5)          0.000e+00
   NO3-            0.000e+00   0.000e+00   -82.174   -82.372    -0.199     29.82
O(0)          0.000e+00
   O2              0.000e+00   0.000e+00   -73.463   -73.422     0.041     30.11

------------------------------Saturation indices-------------------------------

  Phase               SI** log IAP   log K(298 K, 207 atm)

  CH4(g)            1.72     -1.22   -2.93  CH4	 Pressure  73.3 atm, phi 0.709
  CO2(g)            1.38     -0.21   -1.59  CO2	 Pressure  61.2 atm, phi 0.397
  H2(g)            -6.37     -9.53   -3.15  H2
  H2O(g)           -1.45     -0.01    1.44  H2O	 Pressure   0.1 atm, phi 0.346
  N2(g)             1.90     -1.38   -3.28  N2	 Pressure  72.7 atm, phi 1.101
  NH3(g)           -5.62     -3.92    1.71  NH3
  O2(g)           -70.42    -73.42   -3.00  O2

**For a gas, SI = log10(fugacity). Fugacity = pressure * phi / 1 atm.
  For ideal gases, phi = 1.

Reaction step 10.

Using solution 1.	
Using gas phase 1.	
Using reaction 1.	

Reaction 1.	

	  5.000e-01 moles of the following reaction have been added:

	                 Relative
	Reactant            moles

	CO2N2CH4             1.00000

	                 Relative
	Element             moles
	C                    2.00000
	H                    4.00000
	N                    2.00000
	O                    2.00000

-----------------------------------Gas phase-----------------------------------

Total pressure: 239.49      atmospheres          (Peng-Robinson calculation)
    Gas volume:   1.00e+00 liters
  Molar volume:   8.21e-02 liters/mole
   P * Vm / RT:  0.80328  (Compressibility Factor Z) 

                                                        Moles in gas
                                            ----------------------------------
Component         log P           P    phi     Initial       Final       Delta

CH4(g)             1.93   8.427e+01  0.691   3.803e+00   4.288e+00   4.847e-01
CO2(g)             1.85   7.160e+01  0.362   3.172e+00   3.643e+00   4.708e-01
H2O(g)            -0.92   1.191e-01  0.306   5.342e-03   6.061e-03   7.189e-04
N2(g)              1.92   8.350e+01  1.122   3.769e+00   4.249e+00   4.795e-01

-----------------------------Solution composition------------------------------

	Elements           Molality       Moles

	C                 1.104e+00   1.089e+00
	N                 5.299e-01   5.225e-01

----------------------------Description of solution----------------------------

                                       pH  =   5.957      Charge balance
                                       pe  =  -2.802      Adjusted to redox equilibrium
      Specific Conductance (µS/cm,  25°C)  = 40883
                          Density (g/cm³)  =   1.02557
                               Volume (L)  =   1.02277
                        Viscosity (mPa s)  =   0.95508
                        Activity of water  =   0.973
                 Ionic strength (mol/kgw)  =   4.450e-01
                       Mass of water (kg)  =   9.861e-01
                 Total alkalinity (eq/kg)  =   4.451e-01
                       Total CO2 (mol/kg)  =   1.046e+00
                         Temperature (°C)  =  25.00
                           Pressure (atm)  = 239.49
                  Electrical balance (eq)  =   7.322e-09
 Percent error, 100*(Cat-|An|)/(Cat+|An|)  =   0.00
                               Iterations  =  34
                                  Total H  = 1.118896e+02
                                  Total O  = 5.723348e+01

----------------------------Distribution of species----------------------------

                                               Log       Log       Log    mole V
   Species          Molality    Activity  Molality  Activity     Gamma   cm³/mol

   H+              1.431e-06   1.103e-06    -5.844    -5.957    -0.113      0.00
   OH-             1.684e-08   1.086e-08    -7.774    -7.964    -0.190     -2.23
   H2O             5.551e+01   9.730e-01     1.744    -0.012     0.000     17.88
C(-4)         5.855e-02
   CH4             5.855e-02   6.487e-02    -1.232    -1.188     0.045     35.76
C(4)          1.046e+00
   CO2             5.888e-01   6.300e-01    -0.230    -0.201     0.029     34.55
   HCO3-           4.448e-01   3.145e-01    -0.352    -0.502    -0.151     27.75
   (CO2)2          6.079e-03   6.505e-03    -2.216    -2.187     0.029     68.26
   CO3-2           7.212e-05   1.745e-05    -4.142    -4.758    -0.616      0.46
H(0)          5.358e-10
   H2              2.679e-10   2.983e-10    -9.572    -9.525     0.047     15.14
N(-3)         4.451e-01
   NH4+            4.450e-01   2.698e-01    -0.352    -0.569    -0.217     18.83
   NH3             1.187e-04   1.315e-04    -3.926    -3.881     0.045     24.80
N(0)          8.482e-02
   N2              4.241e-02   4.698e-02    -1.373    -1.328     0.045     29.29
N(3)          0.000e+00
   NO2-            0.000e+00   0.000e+00   -59.925   -60.128    -0.203     25.48
N(5)          0.000e+00
   NO3-            0.000e+00   0.000e+00   -82.138   -82.341    -0.203     29.81
O(0)          0.000e+00
   O2              0.000e+00   0.000e+00   -73.484   -73.440     0.045     30.07

------------------------------Saturation indices-------------------------------

  Phase               SI** log IAP   log K(298 K, 239 atm)

  CH4(g)            1.77     -1.19   -2.95  CH4	 Pressure  84.3 atm, phi 0.691
  CO2(g)            1.41     -0.20   -1.61  CO2	 Pressure  71.6 atm, phi 0.362
  H2(g)            -6.36     -9.53   -3.16  H2
  H2O(g)           -1.44     -0.01    1.43  H2O	 Pressure   0.1 atm, phi 0.306
  N2(g)             1.97     -1.33   -3.30  N2	 Pressure  83.5 atm, phi 1.122
  NH3(g)           -5.57     -3.88    1.69  NH3
  O2(g)           -70.42    -73.44   -3.02  O2

**For a gas, SI = log10(fugacity). Fugacity = pressure * phi / 1 atm.
  For ideal gases, phi = 1.

Reaction step 11.

Using solution 1.	
Using gas phase 1.	
Using reaction 1.	

Reaction 1.	

	  5.000e-01 moles of the following reaction have been added:

	                 Relative
	Reactant            moles

	CO2N2CH4             1.00000

	                 Relative
	Element             moles
	C                    2.00000
	H                    4.00000
	N                    2.00000
	O                    2.00000

-----------------------------------Gas phase-----------------------------------

Total pressure: 276.52      atmospheres          (Peng-Robinson calculation)
    Gas volume:   1.00e+00 liters
  Molar volume:   7.34e-02 liters/mole
   P * Vm / RT:  0.82979  (Compressibility Factor Z) 

                                                        Moles in gas
                                            ----------------------------------
Component         log P           P    phi     Initial       Final       Delta

CH4(g)             1.99   9.687e+01  0.676   4.288e+00   4.772e+00   4.839e-01
CO2(g)             1.92   8.355e+01  0.332   3.643e+00   4.115e+00   4.721e-01
H2O(g)            -0.86   1.378e-01  0.271   6.061e-03   6.787e-03   7.256e-04
N2(g)              1.98   9.596e+01  1.145   4.249e+00   4.727e+00   4.781e-01

-----------------------------Solution composition------------------------------

	Elements           Molality       Moles

	C                 1.150e+00   1.133e+00
	N                 5.749e-01   5.662e-01

----------------------------Description of solution----------------------------

                                       pH  =   5.967      Charge balance
                                       pe  =  -2.817      Adjusted to redox equilibrium
      Specific Conductance (µS/cm,  25°C)  = 44195
                          Density (g/cm³)  =   1.02805
                               Volume (L)  =   1.02233
                        Viscosity (mPa s)  =   0.95734
                        Activity of water  =   0.972
                 Ionic strength (mol/kgw)  =   4.805e-01
                       Mass of water (kg)  =   9.850e-01
                 Total alkalinity (eq/kg)  =   4.805e-01
                       Total CO2 (mol/kg)  =   1.088e+00
                         Temperature (°C)  =  25.00
                           Pressure (atm)  = 276.52
                  Electrical balance (eq)  =   8.059e-09
 Percent error, 100*(Cat-|An|)/(Cat+|An|)  =   0.00
                               Iterations  =  41
                                  Total H  = 1.119524e+02
                                  Total O  = 5.728860e+01

----------------------------Distribution of species----------------------------

                                               Log       Log       Log    mole V
   Species          Molality    Activity  Molality  Activity     Gamma   cm³/mol

   H+              1.404e-06   1.078e-06    -5.853    -5.967    -0.114      0.00
   OH-             1.784e-08   1.141e-08    -7.749    -7.943    -0.194     -2.05
   H2O             5.551e+01   9.716e-01     1.744    -0.013     0.000     17.85
C(-4)         6.184e-02
   CH4             6.184e-02   6.907e-02    -1.209    -1.161     0.048     35.80
C(4)          1.088e+00
   CO2             5.956e-01   6.407e-01    -0.225    -0.193     0.032     34.51
   HCO3-           4.802e-01   3.378e-01    -0.319    -0.471    -0.153     27.99
   (CO2)2          6.263e-03   6.737e-03    -2.203    -2.172     0.032     68.18
   CO3-2           8.428e-05   1.994e-05    -4.074    -4.700    -0.626      0.87
H(0)          5.321e-10
   H2              2.660e-10   2.988e-10    -9.575    -9.525     0.050     15.16
N(-3)         4.805e-01
   NH4+            4.804e-01   2.879e-01    -0.318    -0.541    -0.222     18.91
   NH3             1.274e-04   1.423e-04    -3.895    -3.847     0.048     24.85
N(0)          9.437e-02
   N2              4.719e-02   5.271e-02    -1.326    -1.278     0.048     29.29
N(3)          0.000e+00
   NO2-            0.000e+00   0.000e+00   -59.887   -60.095    -0.207     25.50
N(5)          0.000e+00
   NO3-            0.000e+00   0.000e+00   -82.103   -82.310    -0.207     29.79
O(0)          0.000e+00
   O2              0.000e+00   0.000e+00   -73.507   -73.459     0.048     30.02

------------------------------Saturation indices-------------------------------

  Phase               SI** log IAP   log K(298 K, 277 atm)

  CH4(g)            1.82     -1.16   -2.98  CH4	 Pressure  96.9 atm, phi 0.676
  CO2(g)            1.44     -0.19   -1.64  CO2	 Pressure  83.5 atm, phi 0.332
  H2(g)            -6.35     -9.52   -3.17  H2
  H2O(g)           -1.43     -0.01    1.42  H2O	 Pressure   0.1 atm, phi 0.271
  N2(g)             2.04     -1.28   -3.32  N2	 Pressure  96.0 atm, phi 1.145
  NH3(g)           -5.52     -3.85    1.67  NH3
  O2(g)           -70.42    -73.46   -3.04  O2

**For a gas, SI = log10(fugacity). Fugacity = pressure * phi / 1 atm.
  For ideal gases, phi = 1.

Reaction step 12.

Using solution 1.	
Using gas phase 1.	
Using reaction 1.	

Reaction 1.	

	  5.000e-01 moles of the following reaction have been added:

	                 Relative
	Reactant            moles

	CO2N2CH4             1.00000

	                 Relative
	Element             moles
	C                    2.00000
	H                    4.00000
	N                    2.00000
	O                    2.00000

-----------------------------------Gas phase-----------------------------------

Total pressure: 319.78      atmospheres          (Peng-Robinson calculation)
    Gas volume:   1.00e+00 liters
  Molar volume:   6.64e-02 liters/mole
   P * Vm / RT:  0.86838  (Compressibility Factor Z) 

                                                        Moles in gas
                                            ----------------------------------
Component         log P           P    phi     Initial       Final       Delta

CH4(g)             2.05   1.116e+02  0.665   4.772e+00   5.254e+00   4.826e-01
CO2(g)             1.99   9.745e+01  0.307   4.115e+00   4.587e+00   4.714e-01
H2O(g)            -0.80   1.594e-01  0.241   6.787e-03   7.501e-03   7.145e-04
N2(g)              2.04   1.105e+02  1.171   4.727e+00   5.203e+00   4.761e-01

-----------------------------Solution composition------------------------------

	Elements           Molality       Moles

	C                 1.198e+00   1.179e+00
	N                 6.243e-01   6.141e-01

----------------------------Description of solution----------------------------

                                       pH  =   5.977      Charge balance
                                       pe  =  -2.832      Adjusted to redox equilibrium
      Specific Conductance (µS/cm,  25°C)  = 47882
                          Density (g/cm³)  =   1.03083
                               Volume (L)  =   1.02170
                        Viscosity (mPa s)  =   0.95973
                        Activity of water  =   0.970
                 Ionic strength (mol/kgw)  =   5.196e-01
                       Mass of water (kg)  =   9.838e-01
                 Total alkalinity (eq/kg)  =   5.197e-01
                       Total CO2 (mol/kg)  =   1.133e+00
                         Temperature (°C)  =  25.00
                           Pressure (atm)  = 319.78
                  Electrical balance (eq)  =   8.535e-09
 Percent error, 100*(Cat-|An|)/(Cat+|An|)  =   0.00
                               Iterations  =  61
                                  Total H  = 1.120205e+02
                                  Total O  = 5.734501e+01

----------------------------Distribution of species----------------------------

                                               Log       Log       Log    mole V
   Species          Molality    Activity  Molality  Activity     Gamma   cm³/mol

   H+              1.378e-06   1.056e-06    -5.861    -5.977    -0.116      0.00
   OH-             1.896e-08   1.202e-08    -7.722    -7.920    -0.198     -1.86
   H2O             5.551e+01   9.700e-01     1.744    -0.013     0.000     17.82
C(-4)         6.513e-02
   CH4             6.513e-02   7.340e-02    -1.186    -1.134     0.052     35.84
C(4)          1.133e+00
   CO2             6.010e-01   6.504e-01    -0.221    -0.187     0.034     34.47
   HCO3-           5.193e-01   3.635e-01    -0.285    -0.439    -0.155     28.26
   (CO2)2          6.424e-03   6.952e-03    -2.192    -2.158     0.034     68.10
   CO3-2           9.918e-05   2.294e-05    -4.004    -4.639    -0.636      1.32
H(0)          5.270e-10
   H2              2.635e-10   2.988e-10    -9.579    -9.525     0.055     15.19
N(-3)         5.197e-01
   NH4+            5.195e-01   3.077e-01    -0.284    -0.512    -0.227     18.99
   NH3             1.364e-04   1.538e-04    -3.865    -3.813     0.052     24.92
N(0)          1.046e-01
   N2              5.231e-02   5.895e-02    -1.281    -1.229     0.052     29.29
N(3)          0.000e+00
   NO2-            0.000e+00   0.000e+00   -59.850   -60.061    -0.212     25.51
N(5)          0.000e+00
   NO3-            0.000e+00   0.000e+00   -82.068   -82.279    -0.212     29.77
O(0)          0.000e+00
   O2              0.000e+00   0.000e+00   -73.532   -73.480     0.052     29.97

------------------------------Saturation indices-------------------------------

  Phase               SI** log IAP   log K(298 K, 320 atm)

  CH4(g)            1.87     -1.13   -3.00  CH4	 Pressure 111.6 atm, phi 0.665
  CO2(g)            1.48     -0.19   -1.66  CO2	 Pressure  97.5 atm, phi 0.307
  H2(g)            -6.34     -9.52   -3.19  H2
  H2O(g)           -1.42     -0.01    1.40  H2O	 Pressure   0.2 atm, phi 0.241
  N2(g)             2.11     -1.23   -3.34  N2	 Pressure 110.5 atm, phi 1.171
  NH3(g)           -5.47     -3.81    1.66  NH3
  O2(g)           -70.42    -73.48   -3.06  O2

**For a gas, SI = log10(fugacity). Fugacity = pressure * phi / 1 atm.
  For ideal gases, phi = 1.

Reaction step 13.

Using solution 1.	
Using gas phase 1.	
Using reaction 1.	

Reaction 1.	

	  5.000e-01 moles of the following reaction have been added:

	                 Relative
	Reactant            moles

	CO2N2CH4             1.00000

	                 Relative
	Element             moles
	C                    2.00000
	H                    4.00000
	N                    2.00000
	O                    2.00000

-----------------------------------Gas phase-----------------------------------

Total pressure: 370.99      atmospheres          (Peng-Robinson calculation)
    Gas volume:   1.00e+00 liters
  Molar volume:   6.07e-02 liters/mole
   P * Vm / RT:  0.92036  (Compressibility Factor Z) 

                                                        Moles in gas
                                            ----------------------------------
Component         log P           P    phi     Initial       Final       Delta

CH4(g)             2.11   1.291e+02  0.658   5.254e+00   5.735e+00   4.808e-01
CO2(g)             2.06   1.139e+02  0.287   4.587e+00   5.056e+00   4.693e-01
H2O(g)            -0.73   1.843e-01  0.216   7.501e-03   8.185e-03   6.836e-04
N2(g)              2.11   1.278e+02  1.202   5.203e+00   5.676e+00   4.733e-01

-----------------------------Solution composition------------------------------

	Elements           Molality       Moles

	C                 1.251e+00   1.229e+00
	N                 6.795e-01   6.676e-01

----------------------------Description of solution----------------------------

                                       pH  =   5.985      Charge balance
                                       pe  =  -2.847      Adjusted to redox equilibrium
      Specific Conductance (µS/cm,  25°C)  = 52079
                          Density (g/cm³)  =   1.03401
                               Volume (L)  =   1.02088
                        Viscosity (mPa s)  =   0.96241
                        Activity of water  =   0.968
                 Ionic strength (mol/kgw)  =   5.639e-01
                       Mass of water (kg)  =   9.824e-01
                 Total alkalinity (eq/kg)  =   5.639e-01
                       Total CO2 (mol/kg)  =   1.182e+00
                         Temperature (°C)  =  25.00
                           Pressure (atm)  = 370.99
                  Electrical balance (eq)  =   8.834e-09
 Percent error, 100*(Cat-|An|)/(Cat+|An|)  =   0.00
                               Iterations  =  69
                                  Total H  = 1.120959e+02
                                  Total O  = 5.740572e+01

----------------------------Distribution of species----------------------------

                                               Log       Log       Log    mole V
   Species          Molality    Activity  Molality  Activity     Gamma   cm³/mol

   H+              1.354e-06   1.035e-06    -5.868    -5.985    -0.117      0.00
   OH-             2.023e-08   1.270e-08    -7.694    -7.896    -0.202     -1.63
   H2O             5.551e+01   9.683e-01     1.744    -0.014     0.000     17.78
C(-4)         6.843e-02
   CH4             6.843e-02   7.791e-02    -1.165    -1.108     0.056     35.89
C(4)          1.182e+00
   CO2             6.056e-01   6.598e-01    -0.218    -0.181     0.037     34.42
   HCO3-           5.635e-01   3.926e-01    -0.249    -0.406    -0.157     28.57
   (CO2)2          6.579e-03   7.167e-03    -2.182    -2.145     0.037     68.01
   CO3-2           1.179e-04   2.666e-05    -3.929    -4.574    -0.646      1.83
H(0)          5.202e-10
   H2              2.601e-10   2.981e-10    -9.585    -9.526     0.059     15.22
N(-3)         5.639e-01
   NH4+            5.638e-01   3.298e-01    -0.249    -0.482    -0.233     19.09
   NH3             1.459e-04   1.661e-04    -3.836    -3.780     0.056     24.99
N(0)          1.156e-01
   N2              5.781e-02   6.583e-02    -1.238    -1.182     0.056     29.29
N(3)          0.000e+00
   NO2-            0.000e+00   0.000e+00   -59.812   -60.028    -0.216     25.52
N(5)          0.000e+00
   NO3-            0.000e+00   0.000e+00   -82.031   -82.247    -0.216     29.74
O(0)          0.000e+00
   O2              0.000e+00   0.000e+00   -73.558   -73.502     0.056     29.91

------------------------------Saturation indices-------------------------------

  Phase               SI** log IAP   log K(298 K, 371 atm)

  CH4(g)            1.93     -1.11   -3.04  CH4	 Pressure 129.1 atm, phi 0.658
  CO2(g)            1.51     -0.18   -1.69  CO2	 Pressure 113.9 atm, phi 0.287
  H2(g)            -6.33     -9.53   -3.20  H2
  H2O(g)           -1.40     -0.01    1.39  H2O	 Pressure   0.2 atm, phi 0.216
  N2(g)             2.19     -1.18   -3.37  N2	 Pressure 127.8 atm, phi 1.202
  NH3(g)           -5.41     -3.78    1.63  NH3
  O2(g)           -70.41    -73.50   -3.09  O2

**For a gas, SI = log10(fugacity). Fugacity = pressure * phi / 1 atm.
  For ideal gases, phi = 1.

Reaction step 14.

Using solution 1.	
Using gas phase 1.	
Using reaction 1.	

Reaction 1.	

	  5.000e-01 moles of the following reaction have been added:

	                 Relative
	Reactant            moles

	CO2N2CH4             1.00000

	                 Relative
	Element             moles
	C                    2.00000
	H                    4.00000
	N                    2.00000
	O                    2.00000

-----------------------------------Gas phase-----------------------------------

Total pressure: 432.22      atmospheres          (Peng-Robinson calculation)
    Gas volume:   1.00e+00 liters
  Molar volume:   5.59e-02 liters/mole
   P * Vm / RT:  0.98746  (Compressibility Factor Z) 

                                                        Moles in gas
                                            ----------------------------------
Component         log P           P    phi     Initial       Final       Delta

CH4(g)             2.18   1.501e+02  0.657   5.735e+00   6.214e+00   4.785e-01
CO2(g)             2.13   1.334e+02  0.270   5.056e+00   5.522e+00   4.659e-01
H2O(g)            -0.67   2.130e-01  0.195   8.185e-03   8.816e-03   6.314e-04
N2(g)              2.17   1.485e+02  1.242   5.676e+00   6.146e+00   4.697e-01

-----------------------------Solution composition------------------------------

	Elements           Molality       Moles

	C                 1.310e+00   1.284e+00
	N                 7.424e-01   7.281e-01

----------------------------Description of solution----------------------------

                                       pH  =   5.993      Charge balance
                                       pe  =  -2.862      Adjusted to redox equilibrium
      Specific Conductance (µS/cm,  25°C)  = 56932
                          Density (g/cm³)  =   1.03767
                               Volume (L)  =   1.01986
                        Viscosity (mPa s)  =   0.96553
                        Activity of water  =   0.966
                 Ionic strength (mol/kgw)  =   6.149e-01
                       Mass of water (kg)  =   9.808e-01
                 Total alkalinity (eq/kg)  =   6.149e-01
                       Total CO2 (mol/kg)  =   1.238e+00
                         Temperature (°C)  =  25.00
                           Pressure (atm)  = 432.22
                  Electrical balance (eq)  =   9.056e-09
 Percent error, 100*(Cat-|An|)/(Cat+|An|)  =   0.00
                               Iterations  =  78
                                  Total H  = 1.121808e+02
                                  Total O  = 5.747330e+01

----------------------------Distribution of species----------------------------

                                               Log       Log       Log    mole V
   Species          Molality    Activity  Molality  Activity     Gamma   cm³/mol

   H+              1.334e-06   1.017e-06    -5.875    -5.993    -0.118      0.00
   OH-             2.166e-08   1.347e-08    -7.664    -7.870    -0.206     -1.38
   H2O             5.551e+01   9.663e-01     1.744    -0.015     0.000     17.73
C(-4)         7.171e-02
   CH4             7.171e-02   8.262e-02    -1.144    -1.083     0.061     35.95
C(4)          1.238e+00
   HCO3-           6.144e-01   4.259e-01    -0.212    -0.371    -0.159     28.92
   CO2             6.098e-01   6.695e-01    -0.215    -0.174     0.041     34.37
   (CO2)2          6.736e-03   7.395e-03    -2.172    -2.131     0.041     67.89
   CO3-2           1.419e-04   3.135e-05    -3.848    -4.504    -0.656      2.42
H(0)          5.111e-10
   H2              2.555e-10   2.965e-10    -9.593    -9.528     0.065     15.25
N(-3)         6.149e-01
   NH4+            6.147e-01   3.550e-01    -0.211    -0.450    -0.238     19.21
   NH3             1.558e-04   1.795e-04    -3.807    -3.746     0.061     25.07
N(0)          1.275e-01
   N2              6.374e-02   7.343e-02    -1.196    -1.134     0.061     29.29
N(3)          0.000e+00
   NO2-            0.000e+00   0.000e+00   -59.773   -59.994    -0.221     25.54
N(5)          0.000e+00
   NO3-            0.000e+00   0.000e+00   -81.993   -82.214    -0.221     29.71
O(0)          0.000e+00
   O2              0.000e+00   0.000e+00   -73.588   -73.527     0.061     29.84

------------------------------Saturation indices-------------------------------

  Phase               SI** log IAP   log K(298 K, 432 atm)

  CH4(g)            1.99     -1.08   -3.08  CH4	 Pressure 150.1 atm, phi 0.657
  CO2(g)            1.56     -0.17   -1.73  CO2	 Pressure 133.4 atm, phi 0.270
  H2(g)            -6.31     -9.53   -3.22  H2
  H2O(g)           -1.38     -0.01    1.37  H2O	 Pressure   0.2 atm, phi 0.195
  N2(g)             2.27     -1.13   -3.40  N2	 Pressure 148.5 atm, phi 1.242
  NH3(g)           -5.35     -3.75    1.60  NH3
  O2(g)           -70.41    -73.53   -3.12  O2

**For a gas, SI = log10(fugacity). Fugacity = pressure * phi / 1 atm.
  For ideal gases, phi = 1.

------------------
End of simulation.
------------------

------------------------------------
Reading input data for simulation 2.
------------------------------------

