WARNING: Database file from DATABASE keyword is used; command line argument ignored.
   Input file: pressure_si
  Output file: pressure_si.out
Database file: ../database/phreeqc.dat

------------------
Reading data base.
------------------

	SOLUTION_MASTER_SPECIES
	SOLUTION_SPECIES
	PHASES
	GAS_BINARY_PARAMETERS
	EXCHANGE_MASTER_SPECIES
	EXCHANGE_SPECIES
	SURFACE_MASTER_SPECIES
	SURFACE_SPECIES
	MEAN_GAMMAS
	RATES
	END
------------------------------------
Reading input data for simulation 1.
------------------------------------

	DATABASE ../database/phreeqc.dat
	SELECTED_OUTPUT 101
	    file                 pressure_si_101.sel
	USER_PUNCH 101
	    headings Mu SC
	    start
	10 PUNCH STR_F$(MU, 20, 12)
	20 PUNCH STR_F$(SC, 20, 10)
	    end
	SOLUTION 1
	Ba 1
	S(6) 1
	ph   6.35
	temp 75
	END
-------------------------------------------
Beginning of initial solution calculations.
-------------------------------------------

Initial solution 1.	

-----------------------------Solution composition------------------------------

	Elements           Molality       Moles

	Ba                1.000e-03   1.000e-03
	S(6)              1.000e-03   1.000e-03

----------------------------Description of solution----------------------------

                                       pH  =   6.350    
                                       pe  =   4.000    
      Specific Conductance (µS/cm,  75°C)  = 581
                          Density (g/cm³)  =   0.97506
                               Volume (L)  =   1.02582
                        Viscosity (mPa s)  =   0.37812
                        Activity of water  =   1.000
                 Ionic strength (mol/kgw)  =   4.000e-03
                       Mass of water (kg)  =   1.000e+00
                 Total alkalinity (eq/kg)  =  -1.062e-07
                         Temperature (°C)  =  75.00
                  Electrical balance (eq)  =   1.062e-07
 Percent error, 100*(Cat-|An|)/(Cat+|An|)  =   0.00
                               Iterations  =   4
                                  Total H  = 1.110124e+02
                                  Total O  = 5.551022e+01

----------------------------Distribution of species----------------------------

                                               Log       Log       Log    mole V
   Species          Molality    Activity  Molality  Activity     Gamma   cm³/mol

   OH-             4.960e-07   4.595e-07    -6.305    -6.338    -0.033     -4.38
   H+              4.786e-07   4.467e-07    -6.320    -6.350    -0.030      0.00
   H2O             5.551e+01   1.000e+00     1.744    -0.000     0.000     18.48
Ba            1.000e-03
   Ba+2            1.000e-03   7.519e-04    -3.000    -3.124    -0.124    -11.76
   BaOH+           6.144e-11   5.704e-11   -10.212   -10.244    -0.032     (0)  
H(0)          1.843e-24
   H2              9.213e-25   9.222e-25   -24.036   -24.035     0.000     17.43
O(0)          6.863e-31
   O2              3.432e-31   3.435e-31   -30.464   -30.464     0.000     32.99
S(6)          1.000e-03
   SO4-2           9.999e-04   7.426e-04    -3.000    -3.129    -0.129     15.44
   HSO4-           1.237e-07   1.147e-07    -6.908    -6.941    -0.033     41.38

------------------------------Saturation indices-------------------------------

  Phase               SI** log IAP   log K(348 K,   1 atm)

  Barite            3.32     -6.25   -9.57  BaSO4
  H2(g)           -20.91    -24.04   -3.12  H2
  H2O(g)           -0.42     -0.00    0.42  H2O
  O2(g)           -27.37    -30.46   -3.10  O2

**For a gas, SI = log10(fugacity). Fugacity = pressure * phi / 1 atm.
  For ideal gases, phi = 1.

------------------
End of simulation.
------------------

------------------------------------
Reading input data for simulation 2.
------------------------------------

	USE solution 1
	Equilibrium_Phases 1
	Calcite    0.0
	Barite     0.0
	Reaction_Pressure 1
	500
	END
-----------------------------------------
Beginning of batch-reaction calculations.
-----------------------------------------

Reaction step 1.

Using solution 1.	
Using pure phase assemblage 1.	
Using pressure 1.	

-------------------------------Phase assemblage--------------------------------

                                                      Moles in assemblage
Phase               SI  log IAP  log K(T, P)   Initial       Final       Delta

Barite           -0.00    -9.24     -9.24    1.000e+01   1.000e+01   9.710e-04
Calcite          -0.00    -8.60     -8.60    1.000e+01   1.000e+01  -2.281e-04

-----------------------------Solution composition------------------------------

	Elements           Molality       Moles

	Ba                2.900e-05   2.900e-05
	C                 2.281e-04   2.281e-04
	Ca                2.281e-04   2.281e-04
	S                 2.900e-05   2.900e-05

----------------------------Description of solution----------------------------

                                       pH  =   8.782      Charge balance
                                       pe  =   5.491      Adjusted to redox equilibrium
      Specific Conductance (µS/cm,  75°C)  = 161
                          Density (g/cm³)  =   0.99600
                               Volume (L)  =   1.00404
                        Viscosity (mPa s)  =   0.39105
                        Activity of water  =   1.000
                 Ionic strength (mol/kgw)  =   7.537e-04
                       Mass of water (kg)  =   1.000e+00
                 Total alkalinity (eq/kg)  =   4.561e-04
                       Total CO2 (mol/kg)  =   2.281e-04
                         Temperature (°C)  =  75.00
                           Pressure (atm)  = 500.00
                  Electrical balance (eq)  =   1.062e-07
 Percent error, 100*(Cat-|An|)/(Cat+|An|)  =   0.01
                               Iterations  =  15
                                  Total H  = 1.110124e+02
                                  Total O  = 5.550702e+01

----------------------------Distribution of species----------------------------

                                               Log       Log       Log    mole V
   Species          Molality    Activity  Molality  Activity     Gamma   cm³/mol

   OH-             1.953e-04   1.889e-04    -3.709    -3.724    -0.015     -5.91
   H+              1.706e-09   1.652e-09    -8.768    -8.782    -0.014      0.00
   H2O             5.551e+01   1.000e+00     1.744    -0.000     0.000     18.09
Ba            2.900e-05
   Ba+2            2.822e-05   2.478e-05    -4.549    -4.606    -0.056     -8.63
   BaCO3           4.722e-07   4.723e-07    -6.326    -6.326     0.000     -8.03
   BaHCO3+         3.070e-07   2.969e-07    -6.513    -6.527    -0.015     (0)  
   BaOH+           6.196e-10   5.994e-10    -9.208    -9.222    -0.014     (0)  
C(-4)         0.000e+00
   CH4             0.000e+00   0.000e+00  -102.675  -102.675     0.000     38.97
C(4)          2.281e-04
   HCO3-           1.943e-04   1.880e-04    -3.711    -3.726    -0.014     26.98
   CaCO3           1.682e-05   1.682e-05    -4.774    -4.774     0.000    -11.78
   CO3-2           1.574e-05   1.379e-05    -4.803    -4.860    -0.057     -0.53
   BaCO3           4.722e-07   4.723e-07    -6.326    -6.326     0.000     -8.03
   CO2             4.037e-07   4.037e-07    -6.394    -6.394     0.000     36.35
   BaHCO3+         3.070e-07   2.969e-07    -6.513    -6.527    -0.015     (0)  
   CaHCO3+         1.001e-08   9.682e-09    -8.000    -8.014    -0.014     11.29
   (CO2)2          1.244e-14   1.244e-14   -13.905   -13.905     0.000     71.86
Ca            2.281e-04
   Ca+2            2.088e-04   1.829e-04    -3.680    -3.738    -0.057    -15.71
   CaCO3           1.682e-05   1.682e-05    -4.774    -4.774     0.000    -11.78
   CaSO4           2.427e-06   2.427e-06    -5.615    -5.615     0.000     10.54
   CaOH+           1.980e-08   1.915e-08    -7.703    -7.718    -0.015     (0)  
   CaHCO3+         1.001e-08   9.682e-09    -8.000    -8.014    -0.014     11.29
   CaHSO4+         3.149e-14   3.045e-14   -13.502   -13.516    -0.015     (0)  
H(0)          1.951e-32
   H2              9.757e-33   9.758e-33   -32.011   -32.011     0.000     17.04
O(0)          3.653e-15
   O2              1.827e-15   1.827e-15   -14.738   -14.738     0.000     31.77
S(-2)         0.000e+00
   HS-             0.000e+00   0.000e+00  -100.837  -100.851    -0.015     20.92
   H2S             0.000e+00   0.000e+00  -103.206  -103.206     0.000     37.74
   S-2             0.000e+00   0.000e+00  -103.497  -103.555    -0.058     (0)  
   (H2S)2          0.000e+00   0.000e+00  -207.107  -207.106     0.000     47.11
S(6)          2.900e-05
   SO4-2           2.657e-05   2.327e-05    -4.576    -4.633    -0.058     18.03
   CaSO4           2.427e-06   2.427e-06    -5.615    -5.615     0.000     10.54
   HSO4-           9.332e-12   9.025e-12   -11.030   -11.045    -0.015     40.21
   CaHSO4+         3.149e-14   3.045e-14   -13.502   -13.516    -0.015     (0)  

------------------------------Saturation indices-------------------------------

  Phase               SI** log IAP   log K(348 K, 500 atm)

  Anhydrite        -3.53     -8.37   -4.84  CaSO4
  Aragonite        -0.17     -8.60   -8.43  CaCO3
  Barite           -0.00     -9.24   -9.24  BaSO4
  Calcite          -0.00     -8.60   -8.60  CaCO3
  CH4(g)          -99.37   -102.67   -3.31  CH4
  CO2(g)           -4.24     -6.39   -2.15  CO2
  Gypsum           -3.70     -8.37   -4.67  CaSO4:2H2O
  H2(g)           -28.76    -32.01   -3.25  H2
  H2O(g)           -0.29     -0.00    0.29  H2O
  H2S(g)         -101.54   -109.63   -8.10  H2S
  O2(g)           -11.40    -14.74   -3.34  O2
  Sulfur          -78.26    -74.66    3.60  S
  Witherite        -1.09     -9.47   -8.37  BaCO3

**For a gas, SI = log10(fugacity). Fugacity = pressure * phi / 1 atm.
  For ideal gases, phi = 1.

------------------
End of simulation.
------------------

------------------------------------
Reading input data for simulation 3.
------------------------------------

