WARNING: Database file from DATABASE keyword is used; command line argument ignored.
   Input file: prob8
  Output file: prob8.out
Database file: ../database/phreeqc.dat

------------------
Reading data base.
------------------

	SOLUTION_MASTER_SPECIES
	SOLUTION_SPECIES
	PHASES
	GAS_BINARY_PARAMETERS
	EXCHANGE_MASTER_SPECIES
	EXCHANGE_SPECIES
	SURFACE_MASTER_SPECIES
	SURFACE_SPECIES
	MEAN_GAMMAS
	RATES
	END
------------------------------------
Reading input data for simulation 1.
------------------------------------

	DATABASE ../database/phreeqc.dat
	SELECTED_OUTPUT 101
	    file                 prob8_101.sel
	USER_PUNCH 101
	    headings Mu SC
	    start
	10 PUNCH STR_F$(MU, 20, 12)
	20 PUNCH STR_F$(SC, 20, 10)
	    end
	knobs
		logfile
	PRINT
		status false
	SOLUTION 1
		units 	mg/L
		pH	5.5
		pe	4.7
		S(6)	3200
		Fe	270
		Zn	210
	PURE_PHASES 1
		sphalerite	
		pyrite
	REACTION 1
		CH2O	1.0
		0.03 moles in 3 steps
	END
-------------------------------------------
Beginning of initial solution calculations.
-------------------------------------------

Initial solution 1.	

-----------------------------Solution composition------------------------------

	Elements           Molality       Moles

	Fe                4.852e-03   4.852e-03
	S(6)              3.343e-02   3.343e-02
	Zn                3.224e-03   3.224e-03

----------------------------Description of solution----------------------------

                                       pH  =   5.500    
                                       pe  =   4.700    
      Specific Conductance (µS/cm,  25°C)  = 4423
                          Density (g/cm³)  =   1.00030
                               Volume (L)  =   1.00340
                        Viscosity (mPa s)  =   0.89766
                        Activity of water  =   0.999
                 Ionic strength (mol/kgw)  =   6.714e-02
                       Mass of water (kg)  =   1.000e+00
                 Total alkalinity (eq/kg)  =  -8.124e-06
                         Temperature (°C)  =  25.00
                  Electrical balance (eq)  =  -5.071e-02
 Percent error, 100*(Cat-|An|)/(Cat+|An|)  = -75.52
                               Iterations  =   5
                                  Total H  = 1.110124e+02
                                  Total O  = 5.563996e+01

----------------------------Distribution of species----------------------------

                                               Log       Log       Log    mole V
   Species          Molality    Activity  Molality  Activity     Gamma   cm³/mol

   H+              3.757e-06   3.162e-06    -5.425    -5.500    -0.075      0.00
   OH-             4.044e-09   3.199e-09    -8.393    -8.495    -0.102     -3.82
   H2O             5.551e+01   9.994e-01     1.744    -0.000     0.000     18.07
Fe(2)         4.851e-03
   Fe+2            2.456e-03   1.097e-03    -2.610    -2.960    -0.350    -21.57
   FeSO4           2.395e-03   2.432e-03    -2.621    -2.614     0.007     30.28
   FeOH+           1.357e-07   1.097e-07    -6.867    -6.960    -0.093     (0)  
   FeHSO4+         6.287e-08   5.056e-08    -7.202    -7.296    -0.095     (0)  
   Fe(OH)2         2.904e-13   2.950e-13   -12.537   -12.530     0.007     (0)  
   Fe(OH)3-        4.287e-18   3.463e-18   -17.368   -17.461    -0.093     (0)  
Fe(3)         1.453e-06
   Fe(OH)2+        1.381e-06   1.121e-06    -5.860    -5.950    -0.091     (0)  
   Fe(OH)3         4.495e-08   4.565e-08    -7.347    -7.341     0.007     (0)  
   FeOH+2          2.517e-08   1.072e-08    -7.599    -7.970    -0.371     (0)  
   FeSO4+          8.886e-10   7.178e-10    -9.051    -9.144    -0.093     (0)  
   Fe(SO4)2-       2.434e-10   1.957e-10    -9.614    -9.708    -0.095     (0)  
   Fe+3            2.476e-11   5.252e-12   -10.606   -11.280    -0.673     (0)  
   Fe(OH)4-        1.621e-11   1.316e-11   -10.790   -10.881    -0.091     (0)  
   Fe2(OH)2+4      1.012e-13   3.091e-15   -12.995   -14.510    -1.515     (0)  
   FeHSO4+2        1.454e-14   6.078e-15   -13.837   -14.216    -0.379     (0)  
   Fe3(OH)4+5      1.686e-16   7.242e-19   -15.773   -18.140    -2.367     (0)  
H(0)          5.546e-24
   H2              2.773e-24   2.818e-24   -23.557   -23.550     0.007     14.99
O(0)          0.000e+00
   O2              0.000e+00   0.000e+00   -45.270   -45.263     0.007     30.40
S(6)          3.343e-02
   SO4-2           2.946e-02   1.246e-02    -1.531    -1.904    -0.373     15.02
   FeSO4           2.395e-03   2.432e-03    -2.621    -2.614     0.007     30.28
   ZnSO4           1.569e-03   1.594e-03    -2.804    -2.798     0.007      6.48
   Zn(SO4)2-2      4.838e-06   1.542e-06    -5.315    -5.812    -0.497     45.02
   HSO4-           4.766e-06   3.832e-06    -5.322    -5.417    -0.095     40.49
   FeHSO4+         6.287e-08   5.056e-08    -7.202    -7.296    -0.095     (0)  
   FeSO4+          8.886e-10   7.178e-10    -9.051    -9.144    -0.093     (0)  
   Fe(SO4)2-       2.434e-10   1.957e-10    -9.614    -9.708    -0.095     (0)  
   FeHSO4+2        1.454e-14   6.078e-15   -13.837   -14.216    -0.379     (0)  
Zn            3.224e-03
   Zn+2            1.650e-03   7.026e-04    -2.782    -3.153    -0.371    -24.78
   ZnSO4           1.569e-03   1.594e-03    -2.804    -2.798     0.007      6.48
   Zn(SO4)2-2      4.838e-06   1.542e-06    -5.315    -5.812    -0.497     45.02
   ZnOH+           3.028e-07   2.435e-07    -6.519    -6.614    -0.095     (0)  
   Zn(OH)2         8.698e-10   8.834e-10    -9.061    -9.054     0.007     (0)  
   Zn(OH)3-        1.098e-15   8.828e-16   -14.959   -15.054    -0.095     (0)  
   Zn(OH)4-2       1.058e-22   4.422e-23   -21.976   -22.354    -0.379     (0)  

------------------------------Saturation indices-------------------------------

  Phase               SI** log IAP   log K(298 K,   1 atm)

  Fe(OH)3(a)        0.33      5.22    4.89  Fe(OH)3
  Goethite          6.22      5.22   -1.00  FeOOH
  H2(g)           -20.45    -23.55   -3.10  H2
  H2O(g)           -1.50     -0.00    1.50  H2O
  Hematite         14.45     10.44   -4.01  Fe2O3
  Melanterite      -2.66     -4.87   -2.21  FeSO4:7H2O
  O2(g)           -42.37    -45.26   -2.89  O2
  Zn(OH)2(e)       -3.65      7.85   11.50  Zn(OH)2

**For a gas, SI = log10(fugacity). Fugacity = pressure * phi / 1 atm.
  For ideal gases, phi = 1.

-----------------------------------------
Beginning of batch-reaction calculations.
-----------------------------------------

Reaction step 1.

Using solution 1.	
Using pure phase assemblage 1.	
Using reaction 1.	

Reaction 1.	

	  1.000e-02 moles of the following reaction have been added:

	                 Relative
	Reactant            moles

	CH2O                 1.00000

	                 Relative
	Element             moles
	C                    1.00000
	H                    2.00000
	O                    1.00000

-------------------------------Phase assemblage--------------------------------

                                                      Moles in assemblage
Phase               SI  log IAP  log K(T, P)   Initial       Final       Delta

Pyrite            0.00   -18.48    -18.48    1.000e+01   1.000e+01   1.062e-03
Sphalerite        0.00   -11.62    -11.62    1.000e+01   1.000e+01   3.141e-03

-----------------------------Solution composition------------------------------

	Elements           Molality       Moles

	C                 9.998e-03   1.000e-02
	Fe                3.790e-03   3.790e-03
	S                 2.816e-02   2.817e-02
	Zn                8.325e-05   8.326e-05

----------------------------Description of solution----------------------------

                                       pH  =   5.656      Charge balance
                                       pe  =  -0.832      Adjusted to redox equilibrium
      Specific Conductance (µS/cm,  25°C)  = 3946
                          Density (g/cm³)  =   0.99970
                               Volume (L)  =   1.00386
                        Viscosity (mPa s)  =   0.89766
                        Activity of water  =   0.999
                 Ionic strength (mol/kgw)  =   5.756e-02
                       Mass of water (kg)  =   1.000e+00
                 Total alkalinity (eq/kg)  =   2.117e-03
                       Total CO2 (mol/kg)  =   9.998e-03
                         Temperature (°C)  =  25.00
                  Electrical balance (eq)  =  -5.071e-02
 Percent error, 100*(Cat-|An|)/(Cat+|An|)  = -86.48
                               Iterations  =  10
                                  Total H  = 1.110324e+02
                                  Total O  = 5.564996e+01

----------------------------Distribution of species----------------------------

                                               Log       Log       Log    mole V
   Species          Molality    Activity  Molality  Activity     Gamma   cm³/mol

   H+              2.603e-06   2.207e-06    -5.585    -5.656    -0.072      0.00
   OH-             5.715e-09   4.582e-09    -8.243    -8.339    -0.096     -3.85
   H2O             5.551e+01   9.993e-01     1.744    -0.000     0.000     18.07
C(-4)         4.910e-17
   CH4             4.910e-17   4.976e-17   -16.309   -16.303     0.006     35.46
C(4)          9.998e-03
   CO2             7.874e-03   7.944e-03    -2.104    -2.100     0.004     34.79
   HCO3-           1.947e-03   1.599e-03    -2.711    -2.796    -0.085     25.11
   FeHCO3+         1.696e-04   1.379e-04    -3.771    -3.861    -0.090     (0)  
   ZnHCO3+         4.479e-06   3.642e-06    -5.349    -5.439    -0.090     (0)  
   (CO2)2          1.017e-06   1.026e-06    -5.993    -5.989     0.004     68.75
   FeCO3           6.933e-07   7.026e-07    -6.159    -6.153     0.006     (0)  
   ZnCO3           1.210e-07   1.226e-07    -6.917    -6.911     0.006     (0)  
   CO3-2           7.492e-08   3.398e-08    -7.125    -7.469    -0.343     -3.66
   Zn(CO3)2-2      2.039e-10   8.909e-11    -9.691   -10.050    -0.360     (0)  
Fe(2)         3.790e-03
   Fe+2            1.853e-03   8.619e-04    -2.732    -3.065    -0.332    -21.60
   FeSO4           1.767e-03   1.790e-03    -2.753    -2.747     0.006     30.28
   FeHCO3+         1.696e-04   1.379e-04    -3.771    -3.861    -0.090     (0)  
   FeCO3           6.933e-07   7.026e-07    -6.159    -6.153     0.006     (0)  
   FeOH+           1.510e-07   1.234e-07    -6.821    -6.909    -0.088     (0)  
   FeHSO4+         3.195e-08   2.598e-08    -7.496    -7.585    -0.090     (0)  
   Fe(OH)2         4.692e-13   4.754e-13   -12.329   -12.323     0.006     (0)  
   Fe(OH)3-        9.788e-18   7.997e-18   -17.009   -17.097    -0.088     (0)  
   Fe(HS)2         6.558e-20   6.645e-20   -19.183   -19.178     0.006     (0)  
   Fe(HS)3-        2.618e-30   2.128e-30   -29.582   -29.672    -0.090     (0)  
Fe(3)         6.860e-12
   Fe(OH)2+        6.472e-12   5.312e-12   -11.189   -11.275    -0.086     (0)  
   Fe(OH)3         3.057e-13   3.098e-13   -12.515   -12.509     0.006     (0)  
   FeOH+2          7.953e-14   3.543e-14   -13.099   -13.451    -0.351     (0)  
   FeSO4+          1.900e-15   1.553e-15   -14.721   -14.809    -0.088     (0)  
   Fe(SO4)2-       4.880e-16   3.968e-16   -15.312   -15.401    -0.090     (0)  
   Fe(OH)4-        1.559e-16   1.279e-16   -15.807   -15.893    -0.086     (0)  
   Fe+3            5.344e-17   1.212e-17   -16.272   -16.916    -0.644     (0)  
   FeHSO4+2        2.100e-20   9.177e-21   -19.678   -20.037    -0.360     (0)  
   Fe2(OH)2+4      9.267e-25   3.379e-26   -24.033   -25.471    -1.438     (0)  
   Fe3(OH)4+5      6.624e-33   3.750e-35   -32.179   -34.426    -2.247     (0)  
H(0)          3.137e-13
   H2              1.568e-13   1.590e-13   -12.805   -12.799     0.006     14.99
O(0)          0.000e+00
   O2              0.000e+00   0.000e+00   -66.772   -66.766     0.006     30.40
S(-2)         5.971e-12
   H2S             5.602e-12   5.677e-12   -11.252   -11.246     0.006     36.27
   HS-             3.668e-13   2.941e-13   -12.436   -12.531    -0.096     20.80
   Zn(HS)2         1.345e-15   1.363e-15   -14.871   -14.866     0.006     (0)  
   Fe(HS)2         6.558e-20   6.645e-20   -19.183   -19.178     0.006     (0)  
   S-2             3.612e-20   1.609e-20   -19.442   -19.793    -0.351     (0)  
   (H2S)2          1.676e-24   1.698e-24   -23.776   -23.770     0.006     30.09
   Zn(HS)3-        7.125e-27   5.793e-27   -26.147   -26.237    -0.090     (0)  
   Fe(HS)3-        2.618e-30   2.128e-30   -29.582   -29.672    -0.090     (0)  
S(6)          2.816e-02
   SO4-2           2.636e-02   1.168e-02    -1.579    -1.933    -0.353     14.97
   FeSO4           1.767e-03   1.790e-03    -2.753    -2.747     0.006     30.28
   ZnSO4           3.794e-05   3.844e-05    -4.421    -4.415     0.006      6.48
   HSO4-           3.083e-06   2.507e-06    -5.511    -5.601    -0.090     40.47
   Zn(SO4)2-2      1.010e-07   3.486e-08    -6.996    -7.458    -0.462     44.98
   FeHSO4+         3.195e-08   2.598e-08    -7.496    -7.585    -0.090     (0)  
   FeSO4+          1.900e-15   1.553e-15   -14.721   -14.809    -0.088     (0)  
   Fe(SO4)2-       4.880e-16   3.968e-16   -15.312   -15.401    -0.090     (0)  
   FeHSO4+2        2.100e-20   9.177e-21   -19.678   -20.037    -0.360     (0)  
Zn            8.325e-05
   Zn+2            4.059e-05   1.809e-05    -4.392    -4.743    -0.351    -24.82
   ZnSO4           3.794e-05   3.844e-05    -4.421    -4.415     0.006      6.48
   ZnHCO3+         4.479e-06   3.642e-06    -5.349    -5.439    -0.090     (0)  
   ZnCO3           1.210e-07   1.226e-07    -6.917    -6.911     0.006     (0)  
   Zn(SO4)2-2      1.010e-07   3.486e-08    -6.996    -7.458    -0.462     44.98
   ZnOH+           1.104e-08   8.978e-09    -7.957    -8.047    -0.090     (0)  
   Zn(CO3)2-2      2.039e-10   8.909e-11    -9.691   -10.050    -0.360     (0)  
   Zn(OH)2         4.605e-11   4.667e-11   -10.337   -10.331     0.006     (0)  
   Zn(HS)2         1.345e-15   1.363e-15   -14.871   -14.866     0.006     (0)  
   Zn(OH)3-        8.217e-17   6.681e-17   -16.085   -16.175    -0.090     (0)  
   Zn(OH)4-2       1.097e-23   4.793e-24   -22.960   -23.319    -0.360     (0)  
   Zn(HS)3-        7.125e-27   5.793e-27   -26.147   -26.237    -0.090     (0)  

------------------------------Saturation indices-------------------------------

  Phase               SI** log IAP   log K(298 K,   1 atm)

  CH4(g)          -13.50    -16.30   -2.80  CH4
  CO2(g)           -0.63     -2.10   -1.47  CO2
  Fe(OH)3(a)       -4.84      0.05    4.89  Fe(OH)3
  FeS(ppt)         -6.02     -9.94   -3.92  FeS
  Goethite          1.05      0.05   -1.00  FeOOH
  H2(g)            -9.70    -12.80   -3.10  H2
  H2O(g)           -1.50     -0.00    1.50  H2O
  H2S(g)          -10.25    -18.19   -7.94  H2S
  Hematite          4.11      0.10   -4.01  Fe2O3
  Mackinawite      -5.29     -9.94   -4.65  FeS
  Melanterite      -2.79     -5.00   -2.21  FeSO4:7H2O
  O2(g)           -63.87    -66.77   -2.89  O2
  Pyrite            0.00    -18.48  -18.48  FeS2
  Siderite          0.36    -10.53  -10.89  FeCO3
  Smithsonite      -2.21    -12.21  -10.00  ZnCO3
  Sphalerite        0.00    -11.62  -11.62  ZnS
  Sulfur           -6.48     -1.60    4.88  S
  Zn(OH)2(e)       -4.93      6.57   11.50  Zn(OH)2

**For a gas, SI = log10(fugacity). Fugacity = pressure * phi / 1 atm.
  For ideal gases, phi = 1.

Reaction step 2.

Using solution 1.	
Using pure phase assemblage 1.	
Using reaction 1.	

Reaction 1.	

	  2.000e-02 moles of the following reaction have been added:

	                 Relative
	Reactant            moles

	CH2O                 1.00000

	                 Relative
	Element             moles
	C                    1.00000
	H                    2.00000
	O                    1.00000

-------------------------------Phase assemblage--------------------------------

                                                      Moles in assemblage
Phase               SI  log IAP  log K(T, P)   Initial       Final       Delta

Pyrite           -0.00   -18.48    -18.48    1.000e+01   1.000e+01   3.880e-03
Sphalerite       -0.00   -11.62    -11.62    1.000e+01   1.000e+01   3.211e-03

-----------------------------Solution composition------------------------------

	Elements           Molality       Moles

	C                 1.999e-02   2.000e-02
	Fe                9.727e-04   9.730e-04
	S                 2.246e-02   2.246e-02
	Zn                1.373e-05   1.373e-05

----------------------------Description of solution----------------------------

                                       pH  =   6.060      Charge balance
                                       pe  =  -1.346      Adjusted to redox equilibrium
      Specific Conductance (µS/cm,  25°C)  = 3550
                          Density (g/cm³)  =   0.99931
                               Volume (L)  =   1.00421
                        Viscosity (mPa s)  =   0.89755
                        Activity of water  =   0.999
                 Ionic strength (mol/kgw)  =   4.890e-02
                       Mass of water (kg)  =   1.000e+00
                 Total alkalinity (eq/kg)  =   7.750e-03
                       Total CO2 (mol/kg)  =   1.999e-02
                         Temperature (°C)  =  25.00
                  Electrical balance (eq)  =  -5.071e-02
 Percent error, 100*(Cat-|An|)/(Cat+|An|)  = -96.06
                               Iterations  =   9
                                  Total H  = 1.110524e+02
                                  Total O  = 5.565996e+01

----------------------------Distribution of species----------------------------

                                               Log       Log       Log    mole V
   Species          Molality    Activity  Molality  Activity     Gamma   cm³/mol

   H+              1.018e-06   8.701e-07    -5.992    -6.060    -0.068      0.00
   OH-             1.430e-08   1.162e-08    -7.845    -7.935    -0.090     -3.88
   H2O             5.551e+01   9.993e-01     1.744    -0.000     0.000     18.07
C(-4)         5.759e-16
   CH4             5.759e-16   5.825e-16   -15.240   -15.235     0.005     35.46
C(4)          1.999e-02
   CO2             1.224e-02   1.233e-02    -1.912    -1.909     0.003     34.79
   HCO3-           7.584e-03   6.299e-03    -2.120    -2.201    -0.081     25.05
   FeHCO3+         1.606e-04   1.321e-04    -3.794    -3.879    -0.085     (0)  
   ZnHCO3+         2.634e-06   2.166e-06    -5.579    -5.664    -0.085     (0)  
   (CO2)2          2.454e-06   2.472e-06    -5.610    -5.607     0.003     68.75
   FeCO3           1.688e-06   1.707e-06    -5.773    -5.768     0.005     (0)  
   CO3-2           7.159e-07   3.395e-07    -6.145    -6.469    -0.324     -3.75
   ZnCO3           1.830e-07   1.850e-07    -6.738    -6.733     0.005     (0)  
   Zn(CO3)2-2      2.935e-09   1.343e-09    -8.532    -8.872    -0.340     (0)  
Fe(2)         9.727e-04
   Fe+2            4.322e-04   2.097e-04    -3.364    -3.678    -0.314    -21.64
   FeSO4           3.781e-04   3.824e-04    -3.422    -3.418     0.005     30.28
   FeHCO3+         1.606e-04   1.321e-04    -3.794    -3.879    -0.085     (0)  
   FeCO3           1.688e-06   1.707e-06    -5.773    -5.768     0.005     (0)  
   FeOH+           9.212e-08   7.614e-08    -7.036    -7.118    -0.083     (0)  
   FeHSO4+         2.659e-09   2.187e-09    -8.575    -8.660    -0.085     (0)  
   Fe(OH)2         7.360e-13   7.443e-13   -12.133   -12.128     0.005     (0)  
   Fe(OH)3-        3.842e-17   3.176e-17   -16.415   -16.498    -0.083     (0)  
   Fe(HS)2         1.089e-19   1.101e-19   -18.963   -18.958     0.005     (0)  
   Fe(HS)3-        1.119e-29   9.205e-30   -28.951   -29.036    -0.085     (0)  
Fe(3)         3.456e-12
   Fe(OH)2+        3.068e-12   2.546e-12   -11.513   -11.594    -0.081     (0)  
   Fe(OH)3         3.725e-13   3.767e-13   -12.429   -12.424     0.005     (0)  
   FeOH+2          1.435e-14   6.695e-15   -13.843   -14.174    -0.331     (0)  
   Fe(OH)4-        4.755e-16   3.946e-16   -15.323   -15.404    -0.081     (0)  
   FeSO4+          1.228e-16   1.015e-16   -15.911   -15.993    -0.083     (0)  
   Fe(SO4)2-       2.770e-17   2.278e-17   -16.558   -16.642    -0.085     (0)  
   Fe+3            3.711e-18   9.029e-19   -17.431   -18.044    -0.614     (0)  
   FeHSO4+2        5.170e-22   2.366e-22   -21.287   -21.626    -0.340     (0)  
   Fe2(OH)2+4      2.752e-26   1.207e-27   -25.560   -26.918    -1.358     (0)  
   Fe3(OH)4+5      8.499e-35   6.419e-37   -34.071   -36.193    -2.122     (0)  
H(0)          5.209e-13
   H2              2.604e-13   2.635e-13   -12.584   -12.579     0.005     14.99
O(0)          0.000e+00
   O2              0.000e+00   0.000e+00   -67.210   -67.205     0.005     30.40
S(-2)         6.721e-12
   H2S             5.774e-12   5.840e-12   -11.238   -11.234     0.005     36.27
   HS-             9.442e-13   7.676e-13   -12.025   -12.115    -0.090     20.78
   Zn(HS)2         1.386e-15   1.402e-15   -14.858   -14.853     0.005     (0)  
   S-2             2.283e-19   1.066e-19   -18.641   -18.972    -0.331     (0)  
   Fe(HS)2         1.089e-19   1.101e-19   -18.963   -18.958     0.005     (0)  
   (H2S)2          1.777e-24   1.797e-24   -23.750   -23.745     0.005     30.09
   Zn(HS)3-        1.891e-26   1.556e-26   -25.723   -25.808    -0.085     (0)  
   Fe(HS)3-        1.119e-29   9.205e-30   -28.951   -29.036    -0.085     (0)  
S(6)          2.246e-02
   SO4-2           2.207e-02   1.026e-02    -1.656    -1.989    -0.333     14.93
   FeSO4           3.781e-04   3.824e-04    -3.422    -3.418     0.005     30.28
   ZnSO4           5.041e-06   5.098e-06    -5.298    -5.293     0.005      6.48
   HSO4-           1.055e-06   8.676e-07    -5.977    -6.062    -0.085     40.45
   Zn(SO4)2-2      1.087e-08   4.058e-09    -7.964    -8.392    -0.428     44.95
   FeHSO4+         2.659e-09   2.187e-09    -8.575    -8.660    -0.085     (0)  
   FeSO4+          1.228e-16   1.015e-16   -15.911   -15.993    -0.083     (0)  
   Fe(SO4)2-       2.770e-17   2.278e-17   -16.558   -16.642    -0.085     (0)  
   FeHSO4+2        5.170e-22   2.366e-22   -21.287   -21.626    -0.340     (0)  
Zn            1.373e-05
   Zn+2            5.852e-06   2.731e-06    -5.233    -5.564    -0.331    -24.86
   ZnSO4           5.041e-06   5.098e-06    -5.298    -5.293     0.005      6.48
   ZnHCO3+         2.634e-06   2.166e-06    -5.579    -5.664    -0.085     (0)  
   ZnCO3           1.830e-07   1.850e-07    -6.738    -6.733     0.005     (0)  
   Zn(SO4)2-2      1.087e-08   4.058e-09    -7.964    -8.392    -0.428     44.95
   ZnOH+           4.182e-09   3.440e-09    -8.379    -8.463    -0.085     (0)  
   Zn(CO3)2-2      2.935e-09   1.343e-09    -8.532    -8.872    -0.340     (0)  
   Zn(OH)2         4.485e-11   4.536e-11   -10.348   -10.343     0.005     (0)  
   Zn(HS)2         1.386e-15   1.402e-15   -14.858   -14.853     0.005     (0)  
   Zn(OH)3-        2.003e-16   1.647e-16   -15.698   -15.783    -0.085     (0)  
   Zn(OH)4-2       6.552e-23   2.998e-23   -22.184   -22.523    -0.340     (0)  
   Zn(HS)3-        1.891e-26   1.556e-26   -25.723   -25.808    -0.085     (0)  

------------------------------Saturation indices-------------------------------

  Phase               SI** log IAP   log K(298 K,   1 atm)

  CH4(g)          -12.43    -15.23   -2.80  CH4
  CO2(g)           -0.44     -1.91   -1.47  CO2
  Fe(OH)3(a)       -4.75      0.14    4.89  Fe(OH)3
  FeS(ppt)         -5.82     -9.73   -3.92  FeS
  Goethite          1.14      0.14   -1.00  FeOOH
  H2(g)            -9.48    -12.58   -3.10  H2
  H2O(g)           -1.50     -0.00    1.50  H2O
  H2S(g)          -10.24    -18.18   -7.94  H2S
  Hematite          4.28      0.27   -4.01  Fe2O3
  Mackinawite      -5.08     -9.73   -4.65  FeS
  Melanterite      -3.46     -5.67   -2.21  FeSO4:7H2O
  O2(g)           -64.31    -67.20   -2.89  O2
  Pyrite           -0.00    -18.48  -18.48  FeS2
  Siderite          0.74    -10.15  -10.89  FeCO3
  Smithsonite      -2.03    -12.03  -10.00  ZnCO3
  Sphalerite       -0.00    -11.62  -11.62  ZnS
  Sulfur           -6.69     -1.80    4.88  S
  Zn(OH)2(e)       -4.94      6.56   11.50  Zn(OH)2

**For a gas, SI = log10(fugacity). Fugacity = pressure * phi / 1 atm.
  For ideal gases, phi = 1.

Reaction step 3.

Using solution 1.	
Using pure phase assemblage 1.	
Using reaction 1.	

Reaction 1.	

	  3.000e-02 moles of the following reaction have been added:

	                 Relative
	Reactant            moles

	CH2O                 1.00000

	                 Relative
	Element             moles
	C                    1.00000
	H                    2.00000
	O                    1.00000

-------------------------------Phase assemblage--------------------------------

                                                      Moles in assemblage
Phase               SI  log IAP  log K(T, P)   Initial       Final       Delta

Pyrite            0.00   -18.48    -18.48    1.000e+01   1.000e+01   4.852e-03
Sphalerite       -0.00   -11.62    -11.62    1.000e+01   1.000e+01   3.224e-03

-----------------------------Solution composition------------------------------

	Elements           Molality       Moles

	C                 2.999e-02   3.000e-02
	Fe                2.415e-17   2.416e-17
	S                 2.050e-02   2.051e-02
	Zn                6.202e-07   6.204e-07

----------------------------Description of solution----------------------------

                                       pH  =   6.304      Charge balance
                                       pe  =  -2.742      Adjusted to redox equilibrium
      Specific Conductance (µS/cm,  25°C)  = 3341
                          Density (g/cm³)  =   0.99913
                               Volume (L)  =   1.00457
                        Viscosity (mPa s)  =   0.89513
                        Activity of water  =   0.999
                 Ionic strength (mol/kgw)  =   4.256e-02
                       Mass of water (kg)  =   1.000e+00
                 Total alkalinity (eq/kg)  =   1.626e-02
                       Total CO2 (mol/kg)  =   2.999e-02
                         Temperature (°C)  =  25.00
                  Electrical balance (eq)  =  -5.071e-02
 Percent error, 100*(Cat-|An|)/(Cat+|An|)  = -100.00
                               Iterations  =  27
                                  Total H  = 1.110724e+02
                                  Total O  = 5.566996e+01

----------------------------Distribution of species----------------------------

                                               Log       Log       Log    mole V
   Species          Molality    Activity  Molality  Activity     Gamma   cm³/mol

   H+              5.771e-07   4.965e-07    -6.239    -6.304    -0.065      0.00
   OH-             2.477e-08   2.037e-08    -7.606    -7.691    -0.085     -3.90
   H2O             5.551e+01   9.991e-01     1.744    -0.000     0.000     18.07
C(-4)         1.139e-06
   CH4             1.139e-06   1.150e-06    -5.944    -5.939     0.004     35.46
C(4)          2.999e-02
   HCO3-           1.553e-02   1.302e-02    -1.809    -1.886    -0.077     25.00
   CO2             1.445e-02   1.454e-02    -1.840    -1.837     0.003     34.79
   (CO2)2          3.416e-06   3.438e-06    -5.466    -5.464     0.003     68.75
   CO3-2           2.499e-06   1.229e-06    -5.602    -5.910    -0.308     -3.83
   ZnHCO3+         3.970e-15   3.297e-15   -14.401   -14.482    -0.081     (0)  
   ZnCO3           4.887e-16   4.935e-16   -15.311   -15.307     0.004     (0)  
   Zn(CO3)2-2      2.728e-17   1.297e-17   -16.564   -16.887    -0.323     (0)  
   FeHCO3+         1.107e-19   9.196e-20   -18.956   -19.036    -0.081     (0)  
   FeCO3           2.063e-21   2.084e-21   -20.685   -20.681     0.004     (0)  
Fe(2)         2.415e-17
   Fe(HS)2         2.205e-17   2.227e-17   -16.656   -16.652     0.004     (0)  
   Fe(HS)3-        1.737e-18   1.442e-18   -17.760   -17.841    -0.081     (0)  
   Fe+2            1.407e-19   7.065e-20   -18.852   -19.151    -0.299    -21.67
   FeHCO3+         1.107e-19   9.196e-20   -18.956   -19.036    -0.081     (0)  
   FeSO4           1.034e-19   1.045e-19   -18.985   -18.981     0.004     30.28
   FeCO3           2.063e-21   2.084e-21   -20.685   -20.681     0.004     (0)  
   FeOH+           5.388e-23   4.496e-23   -22.269   -22.347    -0.079     (0)  
   FeHSO4+         4.106e-25   3.409e-25   -24.387   -24.467    -0.081     (0)  
   Fe(OH)2         7.626e-28   7.701e-28   -27.118   -27.113     0.004     (0)  
   Fe(OH)3-        6.899e-32   5.757e-32   -31.161   -31.240    -0.079     (0)  
Fe(3)         1.537e-28
   Fe(OH)2+        1.262e-28   1.057e-28   -27.899   -27.976    -0.077     (0)  
   Fe(OH)3         2.713e-29   2.740e-29   -28.566   -28.562     0.004     (0)  
   FeOH+2          3.271e-31   1.586e-31   -30.485   -30.800    -0.314     (0)  
   Fe(OH)4-        6.005e-32   5.029e-32   -31.221   -31.299    -0.077     (0)  
   FeSO4+          1.334e-33   1.113e-33   -32.875   -32.953    -0.079     (0)  
   Fe(SO4)2-       2.438e-34   2.025e-34   -33.613   -33.694    -0.081     (0)  
   Fe+3            4.730e-35   1.221e-35   -34.325   -34.913    -0.588     (0)  
   FeHSO4+2        3.112e-39   1.480e-39   -38.507   -38.830    -0.323     (0)  
   Fe2(OH)2+4      0.000e+00   0.000e+00   -58.878   -60.169    -1.291     (0)  
   Fe3(OH)4+5      0.000e+00   0.000e+00   -83.807   -85.825    -2.018     (0)  
H(0)          1.055e-10
   H2              5.276e-11   5.330e-11   -10.278   -10.273     0.004     14.99
O(0)          0.000e+00
   O2              0.000e+00   0.000e+00   -71.821   -71.817     0.004     30.40
S(-2)         3.282e-03
   H2S             2.557e-03   2.582e-03    -2.592    -2.588     0.004     36.27
   HS-             7.234e-04   5.947e-04    -3.141    -3.226    -0.085     20.77
   Zn(HS)2         6.137e-07   6.198e-07    -6.212    -6.208     0.004     (0)  
   (H2S)2          3.478e-07   3.512e-07    -6.459    -6.454     0.004     30.09
   Zn(HS)3-        6.416e-09   5.328e-09    -8.193    -8.273    -0.081     (0)  
   S-2             2.984e-10   1.447e-10    -9.525    -9.840    -0.314     (0)  
   Fe(HS)2         2.205e-17   2.227e-17   -16.656   -16.652     0.004     (0)  
   Fe(HS)3-        1.737e-18   1.442e-18   -17.760   -17.841    -0.081     (0)  
S(6)          1.722e-02
   SO4-2           1.722e-02   8.315e-03    -1.764    -2.080    -0.316     14.90
   HSO4-           4.834e-07   4.014e-07    -6.316    -6.396    -0.081     40.44
   ZnSO4           3.014e-15   3.044e-15   -14.521   -14.517     0.004      6.48
   Zn(SO4)2-2      4.941e-18   1.965e-18   -17.306   -17.707    -0.400     44.92
   FeSO4           1.034e-19   1.045e-19   -18.985   -18.981     0.004     30.28
   FeHSO4+         4.106e-25   3.409e-25   -24.387   -24.467    -0.081     (0)  
   FeSO4+          1.334e-33   1.113e-33   -32.875   -32.953    -0.079     (0)  
   Fe(SO4)2-       2.438e-34   2.025e-34   -33.613   -33.694    -0.081     (0)  
   FeHSO4+2        3.112e-39   1.480e-39   -38.507   -38.830    -0.323     (0)  
Zn            6.202e-07
   Zn(HS)2         6.137e-07   6.198e-07    -6.212    -6.208     0.004     (0)  
   Zn(HS)3-        6.416e-09   5.328e-09    -8.193    -8.273    -0.081     (0)  
   Zn+2            4.149e-15   2.012e-15   -14.382   -14.696    -0.314    -24.89
   ZnHCO3+         3.970e-15   3.297e-15   -14.401   -14.482    -0.081     (0)  
   ZnSO4           3.014e-15   3.044e-15   -14.521   -14.517     0.004      6.48
   ZnCO3           4.887e-16   4.935e-16   -15.311   -15.307     0.004     (0)  
   Zn(CO3)2-2      2.728e-17   1.297e-17   -16.564   -16.887    -0.323     (0)  
   ZnOH+           5.346e-18   4.439e-18   -17.272   -17.353    -0.081     (0)  
   Zn(SO4)2-2      4.941e-18   1.965e-18   -17.306   -17.707    -0.400     44.92
   Zn(OH)2         1.016e-19   1.026e-19   -18.993   -18.989     0.004     (0)  
   Zn(OH)3-        7.860e-25   6.527e-25   -24.105   -24.185    -0.081     (0)  
   Zn(OH)4-2       4.378e-31   2.082e-31   -30.359   -30.682    -0.323     (0)  

------------------------------Saturation indices-------------------------------

  Phase               SI** log IAP   log K(298 K,   1 atm)

  CH4(g)           -3.14     -5.94   -2.80  CH4
  CO2(g)           -0.37     -1.84   -1.47  CO2
  Fe(OH)3(a)      -20.89    -16.00    4.89  Fe(OH)3
  FeS(ppt)        -12.16    -16.07   -3.92  FeS
  Goethite        -15.00    -16.00   -1.00  FeOOH
  H2(g)            -7.17    -10.27   -3.10  H2
  H2O(g)           -1.50     -0.00    1.50  H2O
  H2S(g)           -1.59     -9.53   -7.94  H2S
  Hematite        -28.00    -32.00   -4.01  Fe2O3
  Mackinawite     -11.42    -16.07   -4.65  FeS
  Melanterite     -19.02    -21.23   -2.21  FeSO4:7H2O
  O2(g)           -68.92    -71.82   -2.89  O2
  Pyrite            0.00    -18.48  -18.48  FeS2
  Siderite        -14.17    -25.06  -10.89  FeCO3
  Smithsonite     -10.61    -20.61  -10.00  ZnCO3
  Sphalerite       -0.00    -11.62  -11.62  ZnS
  Sulfur           -0.35      4.54    4.88  S
  Zn(OH)2(e)      -13.59     -2.09   11.50  Zn(OH)2

**For a gas, SI = log10(fugacity). Fugacity = pressure * phi / 1 atm.
  For ideal gases, phi = 1.

------------------
End of simulation.
------------------

------------------------------------
Reading input data for simulation 2.
------------------------------------

