WARNING: Database file from DATABASE keyword is used; command line argument ignored.
   Input file: raw
  Output file: raw.out
Database file: ../database/phreeqc.dat

------------------
Reading data base.
------------------

	SOLUTION_MASTER_SPECIES
	SOLUTION_SPECIES
	PHASES
	GAS_BINARY_PARAMETERS
	EXCHANGE_MASTER_SPECIES
	EXCHANGE_SPECIES
	SURFACE_MASTER_SPECIES
	SURFACE_SPECIES
	MEAN_GAMMAS
	RATES
	END
------------------------------------
Reading input data for simulation 1.
------------------------------------

	database ../database/phreeqc.dat
	SELECTED_OUTPUT 101
	    file                 raw_101.sel
	USER_PUNCH 101
	    headings Mu SC
	    start
	10 PUNCH STR_F$(MU, 20, 12)
	20 PUNCH STR_F$(SC, 20, 10)
	    end
	SURFACE_MASTER_SPECIES
	        Surf    SurfOH
	SURFACE_SPECIES
	        SurfOH = SurfOH
	                log_k   0.0
	        SurfOH  + H+ = SurfOH2+
	                log_k   7.29
	        SurfOH = SurfO- + H+
	                log_k   -8.93
	        SurfOH + AsO4-3 + 3H+ = SurfH2AsO4 + H2O
	                log_k   29.31
	        SurfOH + AsO4-3 + 2H+ = SurfHAsO4- + H2O
	                log_k   23.51
	        SurfOH + AsO4-3 = SurfOHAsO4-3
	                log_k   10.58
	SOLUTION_MASTER_SPECIES
	        As       H3AsO4        -1.0     74.9216         74.9216
	SOLUTION_SPECIES
		H3AsO4 = H2AsO4- + H+
		log_k	-2.3
		delta_h	-7.066	kJ
		H3AsO4 = HAsO4-2 + 2H+
		log_k	-9.46
		delta_h	-3.846	kJ
		H3AsO4 = AsO4-3 + 3H+
		log_k	-21.11
		delta_h	14.354	kJ
	        H3AsO4 = H2AsO4- + H+ 
	        log_k           -2.243
	        delta_h -1.69 kcal
	        H3AsO4 = HAsO4-2 + 2H+ 
	        log_k           -9.001
	        delta_h -0.92 kcal
	        H3AsO4 = AsO4-3 + 3H+
	        log_k           -20.597
	        delta_h 3.43 kcal
	        H3AsO4 = H3AsO4
	        log_k           0.0
	        H3AsO4 = AsO4-3 + 3H+
	        log_k   -20.7
	        H+ + AsO4-3 = HAsO4-2
	        log_k   11.50
	        2H+ + AsO4-3 = H2AsO4-
	        log_k           18.46
	END
------------------
End of simulation.
------------------

------------------------------------
Reading input data for simulation 2.
------------------------------------

	SOLUTION_RAW       20
	  -temp              25
	  -pressure          1.1
	  -pH                7
	  -pe                4
	  -mu                1e-07
	  -ah2o              1
	  -total_h           111.01974134192
	  -total_o           55.535325076996
	  -cb                0.0012883279473439
	  -mass_water        1
	  -total_alkalinity  0
	  -totals
	    As   4.1908616387069e-07
	    C   0.0096003939798442
	    Ca   9.3009440332783e-05
	    Cl   0.0032689522220291
	    Mg   6.6514137243683e-05
	    Na   0.01444565173261
	    S   0.00023718575024482
	  -activities
	    As   -8.3776966771614
	    C(-4)   -4.0177109440686
	    C(4)   -4.0177109440686
	    Ca   -6.0314729689045
	    Cl   -4.4855914268839
	    Mg   -6.1770860377888
	    Na   -3.8402628596702
	    S(-2)   -5.6249114062687
	    S(6)   -5.6249114062687
	  -gammas
	EXCHANGE_RAW       20 Exchanger defined in simulation 1.
	  -pitzer_exchange_gammas 1
	  -component               X
	    -la                    0.60688497237009
	    -charge_balance        0
	    -phase_proportion              0
	    -formula_z                     0
	    -totals
	      Ca   0.067100780469236
	      Mg   0.029709189613889
	      Na   0.30638006319249
	      X   0.50000000335874
	EQUILIBRIUM_PHASES_RAW       20 Pp_Assemblage defined in simulation 1.
	  -eltList       
	    C   3
	    Ca   2
	    Mg   1
	    O   9
	  -component               Calcite
	    -si                    0
	    -moles                 0.11781770315801
	    -delta                 0
	    -initial_moles         0.1180709871316
	    -force_equality        0
	    -dissolve_only         0
	  -component               Dolomite
	    -si                    0
	    -moles                 1.568403984096
	    -delta                 0
	    -initial_moles         1.5687877423086
	    -force_equality        0
	    -dissolve_only         0
	SURFACE_RAW       20 Surface defined in simulation 1.
	  -type 2
	  -dl_type 0
	  -sites_units 0
	  -only_counter_ions 0
	  -thickness 1e-08
	  -debye_lengths 0
	  -DDL_viscosity 1
	  -DDL_limit 0.8
	  -transport 0
	  -component               SurfOH
	    -charge_name           Surf
	    -formula_z             0
	    -moles                 0
	    -la                    -0.20250616397962
	    -master_element        Surf
	    -charge_name           Surf       
	    -charge_balance        0.084703340238721
	    -phase_proportion      0
	    -Dw                    0
	    -totals
	      As   0.0080729678646393
	      H   0.17518734394924
	      O   0.17225449222186
	      Surf   0.14000000006222
	  -charge_component                    Surf
	    -specific_area         600
	    -grams                 30
	    -charge_balance        0.011043198890933
	    -mass_water            0
	    -la_psi                0.46673410986017
	    -capacitance0          1
	    -capacitance1          5
	    -diffuse_layer_totals
	USE solution 20
	USE exchange 20
	USE equilibrium_phases 20
	USE surface 20
	END
-----------------------------------------
Beginning of batch-reaction calculations.
-----------------------------------------

Reaction step 1.

Using solution 20.	
Using exchange 20.	Exchanger defined in simulation 1.
Using surface 20.	Surface defined in simulation 1.
Using pure phase assemblage 20.	Pp_Assemblage defined in simulation 1.

-------------------------------Phase assemblage--------------------------------

                                                      Moles in assemblage
Phase               SI  log IAP  log K(T, P)   Initial       Final       Delta

Calcite           0.00    -8.45     -8.45    1.178e-01   1.097e-01  -8.074e-03
Dolomite          0.00   -17.08    -17.08    1.568e+00   1.567e+00  -9.864e-04

------------------------------Surface composition------------------------------

Diffuse Double Layer Surface-Complexation Model

Surf          
	  2.526e-04  Surface charge, eq
	  1.354e-03  sigma, C/m²
	  3.476e-03  psi, V
	 -1.353e-01  -F*psi/RT
	  8.735e-01  exp(-F*psi/RT)
	  6.000e+02  specific area, m²/g
	  1.800e+04  m² for   3.000e+01 g


Surf          
	  1.400e-01  moles
	                                   Mole                     Log
	Species               Moles    Fraction    Molality    Molality

	SurfOH            9.434e-02       0.674   9.434e-02      -1.025
	SurfOH2+          3.101e-02       0.221   3.101e-02      -1.509
	SurfOHAsO4-3      8.054e-03       0.058   8.054e-03      -2.094
	SurfO-            6.576e-03       0.047   6.576e-03      -2.182
	SurfHAsO4-        1.950e-05       0.000   1.950e-05      -4.710
	SurfH2AsO4        2.074e-07       0.000   2.074e-07      -6.683

-----------------------------Exchange composition------------------------------

X                5.000e-01 mol

	                               Equiv-    Equivalent      Log 
	Species             Moles      alents      Fraction     Gamma

	NaX               2.866e-01   2.866e-01   5.731e-01    -0.068
	CaX2              7.608e-02   1.522e-01   3.043e-01    -0.267
	MgX2              3.064e-02   6.127e-02   1.225e-01    -0.260

-----------------------------Solution composition------------------------------

	Elements           Molality       Moles

	As                1.927e-08   1.927e-08
	C                 1.965e-02   1.965e-02
	Ca                1.770e-04   1.770e-04
	Cl                3.269e-03   3.269e-03
	Mg                1.253e-04   1.253e-04
	Na                3.425e-02   3.425e-02
	S                 2.372e-04   2.372e-04

----------------------------Description of solution----------------------------

                                       pH  =   7.714      Charge balance
                                       pe  =  12.887      Adjusted to redox equilibrium
      Specific Conductance (µS/cm,  25°C)  = 2529
                          Density (g/cm³)  =   0.99866
                               Volume (L)  =   1.00347
                        Viscosity (mPa s)  =   0.89625
                        Activity of water  =   0.999
                 Ionic strength (mol/kgw)  =   2.908e-02
                       Mass of water (kg)  =   1.000e+00
                 Total alkalinity (eq/kg)  =   1.904e-02
                       Total CO2 (mol/kg)  =   1.965e-02
                         Temperature (°C)  =  25.00
                           Pressure (atm)  =  1.10
                  Electrical balance (eq)  =   1.208e-02
 Percent error, 100*(Cat-|An|)/(Cat+|An|)  =  21.17
                               Iterations  =  17
                                  Total H  = 1.110305e+02
                                  Total O  = 5.556545e+01

----------------------------Distribution of species----------------------------

                                               Log       Log       Log    mole V
   Species          Molality    Activity  Molality  Activity     Gamma   cm³/mol

   OH-             6.195e-07   5.240e-07    -6.208    -6.281    -0.073     -3.95
   H+              2.205e-08   1.930e-08    -7.657    -7.714    -0.058      0.00
   H2O             5.551e+01   9.990e-01     1.744    -0.000     0.000     18.07
As            1.927e-08
   HAsO4-2         1.738e-08   9.132e-09    -7.760    -8.039    -0.279     (0)  
   H2AsO4-         1.888e-09   1.607e-09    -8.724    -8.794    -0.070     (0)  
   AsO4-3          6.363e-12   1.496e-12   -11.196   -11.825    -0.629     (0)  
   H3AsO4          5.354e-15   5.390e-15   -14.271   -14.268     0.003     (0)  
C(-4)         0.000e+00
   CH4             0.000e+00   0.000e+00  -143.582  -143.579     0.003     35.46
C(4)          1.965e-02
   HCO3-           1.864e-02   1.599e-02    -1.730    -1.796    -0.067     24.89
   CO2             6.913e-04   6.944e-04    -3.160    -3.158     0.002     34.79
   NaHCO3          2.272e-04   2.295e-04    -3.644    -3.639     0.004     17.66
   CO3-2           7.187e-05   3.886e-05    -4.143    -4.411    -0.267     -4.00
   MgHCO3+         1.311e-05   1.113e-05    -4.882    -4.953    -0.071      5.58
   CaCO3           5.950e-06   5.990e-06    -5.225    -5.223     0.003    -14.60
   MgCO3           2.191e-06   2.206e-06    -5.659    -5.656     0.003    -17.09
   (CO2)2          7.804e-09   7.838e-09    -8.108    -8.106     0.002     68.75
   CaHCO3+         1.494e-10   1.286e-10    -9.826    -9.891    -0.065      9.76
Ca            1.770e-04
   Ca+2            1.697e-04   9.177e-05    -3.770    -4.037    -0.267    -17.74
   CaCO3           5.950e-06   5.990e-06    -5.225    -5.223     0.003    -14.60
   CaSO4           1.374e-06   1.379e-06    -5.862    -5.861     0.001      7.22
   CaOH+           9.259e-10   7.884e-10    -9.033    -9.103    -0.070     (0)  
   CaHCO3+         1.494e-10   1.286e-10    -9.826    -9.891    -0.065      9.76
   CaHSO4+         2.619e-13   2.230e-13   -12.582   -12.652    -0.070     (0)  
Cl            3.269e-03
   Cl-             3.269e-03   2.771e-03    -2.486    -2.557    -0.072     18.20
   HCl             1.790e-11   1.842e-11   -10.747   -10.735     0.012     20.36
H(0)          0.000e+00
   H2              0.000e+00   0.000e+00   -44.356   -44.353     0.003     14.99
Mg            1.253e-04
   Mg+2            1.083e-04   5.950e-05    -3.965    -4.225    -0.260    -21.43
   MgHCO3+         1.311e-05   1.113e-05    -4.882    -4.953    -0.071      5.58
   MgCO3           2.191e-06   2.206e-06    -5.659    -5.656     0.003    -17.09
   MgSO4           1.656e-06   1.678e-06    -5.781    -5.775     0.006     -0.40
   MgOH+           1.295e-08   1.118e-08    -7.888    -7.951    -0.064     (0)  
   Mg(SO4)2-2      1.055e-09   5.951e-10    -8.977    -9.225    -0.249     40.19
Na            3.425e-02
   Na+             3.400e-02   2.904e-02    -1.469    -1.537    -0.068     -1.28
   NaHCO3          2.272e-04   2.295e-04    -3.644    -3.639     0.004     17.66
   NaSO4-          3.225e-05   2.748e-05    -4.491    -4.561    -0.070     17.42
   Na2SO4          3.867e-10   3.890e-10    -9.413    -9.410     0.003     47.96
O(0)          4.373e-04
   O2              2.187e-04   2.201e-04    -3.660    -3.657     0.003     30.40
S(-2)         0.000e+00
   HS-             0.000e+00   0.000e+00  -142.770  -142.843    -0.073     20.73
   H2S             0.000e+00   0.000e+00  -143.619  -143.616     0.003     36.27
   S-2             0.000e+00   0.000e+00  -147.775  -148.046    -0.272     (0)  
   (H2S)2          0.000e+00   0.000e+00  -288.512  -288.509     0.003     30.09
S(6)          2.372e-04
   SO4-2           2.019e-04   1.077e-04    -3.695    -3.968    -0.273     14.83
   NaSO4-          3.225e-05   2.748e-05    -4.491    -4.561    -0.070     17.42
   MgSO4           1.656e-06   1.678e-06    -5.781    -5.775     0.006     -0.40
   CaSO4           1.374e-06   1.379e-06    -5.862    -5.861     0.001      7.22
   Mg(SO4)2-2      1.055e-09   5.951e-10    -8.977    -9.225    -0.249     40.19
   Na2SO4          3.867e-10   3.890e-10    -9.413    -9.410     0.003     47.96
   HSO4-           2.373e-10   2.021e-10    -9.625    -9.695    -0.070     40.41
   CaHSO4+         2.619e-13   2.230e-13   -12.582   -12.652    -0.070     (0)  

------------------------------Saturation indices-------------------------------

  Phase               SI** log IAP   log K(298 K,   1 atm)

  Anhydrite        -3.69     -8.01   -4.31  CaSO4
  Aragonite        -0.11     -8.45   -8.34  CaCO3
  Calcite           0.00     -8.45   -8.45  CaCO3
  CH4(g)         -140.78   -143.58   -2.80  CH4
  CO2(g)           -1.69     -3.16   -1.47  CO2
  Dolomite          0.00    -17.08  -17.08  CaMg(CO3)2
  Epsomite         -6.46     -8.20   -1.74  MgSO4:7H2O
  Gypsum           -3.46     -8.01   -4.55  CaSO4:2H2O
  H2(g)           -41.25    -44.35   -3.10  H2
  H2O(g)           -1.50     -0.00    1.50  H2O
  H2S(g)         -142.62   -150.56   -7.94  H2S
  Halite           -5.66     -4.09    1.57  NaCl
  Hexahydrite      -6.63     -8.20   -1.57  MgSO4:6H2O
  Kieserite        -7.03     -8.19   -1.16  MgSO4:H2O
  Mirabilite       -6.34     -7.05   -0.71  Na2SO4:10H2O
  O2(g)            -0.76     -3.66   -2.89  O2
  Sulfur         -107.29   -102.41    4.88  S
  Thenardite       -7.69     -7.04    0.65  Na2SO4

**For a gas, SI = log10(fugacity). Fugacity = pressure * phi / 1 atm.
  For ideal gases, phi = 1.

------------------
End of simulation.
------------------

------------------------------------
Reading input data for simulation 3.
------------------------------------

	SOLUTION_RAW       20
	  -temp              25
	  -pH                7
	  -pH                xx
ERROR: Expected numeric value for pH.
	  -xx                1
ERROR: Unknown input in SOLUTION_RAW keyword.
ERROR:   -xx                1
	  -pe                4
	  -mu                1e-07
	  -ah2o              1
	  -total_h           111.01974134192
	  -total_o           55.535325076996
	  -cb                0.0012883279473439
	  -mass_water        1
	  -total_alkalinity  0
	  -totals
	    As   4.1908616387069e-07
	    C   0.0096003939798442
	    Ca   9.3009440332783e-05
	    Cl   0.0032689522220291
	    Mg   6.6514137243683e-05
	    Na   0.01444565173261
	    S   0.00023718575024482
	  -activities
	    As   -8.3776966771614
	    C(-4)   -4.0177109440686
	    C(4)   -4.0177109440686
	    Ca   -6.0314729689045
	    Cl   -4.4855914268839
	    Mg   -6.1770860377888
	    Na   -3.8402628596702
	    S(-2)   -5.6249114062687
	    S(6)   -5.6249114062687
	  -gammas
ERROR: Calculations terminating due to input errors.
Stopping.
