WARNING: Database file from DATABASE keyword is used; command line argument ignored.
   Input file: rho_H3PO4
  Output file: rho_H3PO4.out
Database file: ../database/phreeqc.dat

------------------
Reading data base.
------------------

	SOLUTION_MASTER_SPECIES
	SOLUTION_SPECIES
	PHASES
	GAS_BINARY_PARAMETERS
	EXCHANGE_MASTER_SPECIES
	EXCHANGE_SPECIES
	SURFACE_MASTER_SPECIES
	SURFACE_SPECIES
	MEAN_GAMMAS
	RATES
	END
------------------------------------
Reading input data for simulation 1.
------------------------------------

	DATABASE ../database/phreeqc.dat
	SELECTED_OUTPUT 101
	 file                 rho_H3PO4_101.sel
	USER_PUNCH 101
	 headings Mu SC
	 start
	10 PUNCH STR_F$(MU, 20, 12)
	20 PUNCH STR_F$(SC, 20, 10)
	 end
	SOLUTION 1
	 pH 7 charge
	END
-------------------------------------------
Beginning of initial solution calculations.
-------------------------------------------

Initial solution 1.	

-----------------------------Solution composition------------------------------

	Elements           Molality       Moles

	Pure water     

----------------------------Description of solution----------------------------

                                       pH  =   6.997      Charge balance
                                       pe  =   4.000    
      Specific Conductance (µS/cm,  25°C)  = 0
                          Density (g/cm³)  =   0.99704
                               Volume (L)  =   1.00297
                        Viscosity (mPa s)  =   0.89002
                        Activity of water  =   1.000
                 Ionic strength (mol/kgw)  =   1.006e-07
                       Mass of water (kg)  =   1.000e+00
                 Total alkalinity (eq/kg)  =   3.040e-17
                         Temperature (°C)  =  25.00
                  Electrical balance (eq)  =  -3.040e-17
 Percent error, 100*(Cat-|An|)/(Cat+|An|)  =  -0.00
                               Iterations  =   2
                                  Total H  = 1.110124e+02
                                  Total O  = 5.550622e+01

----------------------------Distribution of species----------------------------

                                               Log       Log       Log    mole V
   Species          Molality    Activity  Molality  Activity     Gamma   cm³/mol

   OH-             1.006e-07   1.006e-07    -6.997    -6.997    -0.000     -4.14
   H+              1.006e-07   1.006e-07    -6.997    -6.997    -0.000      0.00
   H2O             5.551e+01   1.000e+00     1.744    -0.000     0.000     18.07
H(0)          1.433e-25
   H2              7.166e-26   7.166e-26   -25.145   -25.145     0.000     14.99
O(0)          0.000e+00
   O2              0.000e+00   0.000e+00   -42.073   -42.073     0.000     30.40

------------------------------Saturation indices-------------------------------

  Phase               SI** log IAP   log K(298 K,   1 atm)

  H2(g)           -22.05    -25.14   -3.10  H2
  H2O(g)           -1.50     -0.00    1.50  H2O
  O2(g)           -39.18    -42.07   -2.89  O2

**For a gas, SI = log10(fugacity). Fugacity = pressure * phi / 1 atm.
  For ideal gases, phi = 1.

------------------
End of simulation.
------------------

------------------------------------
Reading input data for simulation 2.
------------------------------------

	END
------------------
End of simulation.
------------------

------------------------------------
Reading input data for simulation 3.
------------------------------------

	USE solution 1
	REACTION_TEMPERATURE
	 15.900000
	REACTION_PRESSURE
	 1.000000
	REACTION
	 H3PO4 1
	0 0.466800 1.031500 2.377900 4.150500 6.434100 
	USER_GRAPH
	 -headings 16.oC,.1.atm
	 -axis_titles "H3PO4 / (mol/kg H2O)" "density / (g/L)"
	10 data 0, 1023.200000, 1051.400000, 1111.400000, 1179.100000, 1251.100000, 
	20 dim d(6)
	30 read d(1), d(2), d(3), d(4), d(5), d(6), 
	40 if step_no = 1 then put(rho, 10)
	50 if step_no > 1 then Vmol = 1 * Vm("H+") + 1 * Vm("H2PO4-")
	60 if step_no = 1 then dif = 0 else dif = rho * 1e3 - d(step_no)
	90 if step_no = 6 then put(step_no + get(1), 1)
	100 if step_no = 1 then end
	110 plot_xy tot("P"), d(step_no), symbol = Square, line_w = 0, color = Red
	120 plot_xy tot("P"), 1e3 * rho, symbol = None, color = Red, y_axis = 2 
	150 end
	END
-----------------------------------------
Beginning of batch-reaction calculations.
-----------------------------------------

Reaction step 1.

Using solution 1.	
Using temperature 1.	
Using pressure 1.	
Using reaction 1.	

Reaction 1.	

	  0.000e+00 moles of the following reaction have been added:

	                 Relative
	Reactant            moles

	H3PO4                1.00000

	                 Relative
	Element             moles
	H                    3.00000
	O                    4.00000
	P                    1.00000

-----------------------------Solution composition------------------------------

	Elements           Molality       Moles

	Pure water     

----------------------------Description of solution----------------------------

                                       pH  =   7.155      Charge balance
                                       pe  =  -0.301      Adjusted to redox equilibrium
      Specific Conductance (µS/cm,  16°C)  = 0
                          Density (g/cm³)  =   0.99896
                               Volume (L)  =   1.00104
                        Viscosity (mPa s)  =   1.11098
                        Activity of water  =   1.000
                 Ionic strength (mol/kgw)  =   6.997e-08
                       Mass of water (kg)  =   1.000e+00
                 Total alkalinity (eq/kg)  =   6.089e-17
                         Temperature (°C)  =  15.90
                  Electrical balance (eq)  =  -6.089e-17
 Percent error, 100*(Cat-|An|)/(Cat+|An|)  =  -0.00
                               Iterations  =   7
                                  Total H  = 1.110124e+02
                                  Total O  = 5.550622e+01

----------------------------Distribution of species----------------------------

                                               Log       Log       Log    mole V
   Species          Molality    Activity  Molality  Activity     Gamma   cm³/mol

   OH-             6.997e-08   6.995e-08    -7.155    -7.155    -0.000     -4.59
   H+              6.997e-08   6.995e-08    -7.155    -7.155    -0.000      0.00
   H2O             5.551e+01   1.000e+00     1.744    -0.000     0.000     18.03
H(0)          3.043e-17
   H2              1.521e-17   1.521e-17   -16.818   -16.818     0.000     14.24
O(0)          0.000e+00
   O2              0.000e+00   0.000e+00   -61.849   -61.849     0.000     29.60

------------------------------Saturation indices-------------------------------

  Phase               SI** log IAP   log K(289 K,   1 atm)

  H2(g)           -13.74    -16.82   -3.08  H2
  H2O(g)           -1.74     -0.00    1.74  H2O
  O2(g)           -59.03    -61.85   -2.82  O2

**For a gas, SI = log10(fugacity). Fugacity = pressure * phi / 1 atm.
  For ideal gases, phi = 1.

Reaction step 2.

Using solution 1.	
Using temperature 1.	
Using pressure 1.	
Using reaction 1.	

Reaction 1.	

	  4.668e-01 moles of the following reaction have been added:

	                 Relative
	Reactant            moles

	H3PO4                1.00000

	                 Relative
	Element             moles
	H                    3.00000
	O                    4.00000
	P                    1.00000

-----------------------------Solution composition------------------------------

	Elements           Molality       Moles

	P                 4.668e-01   4.668e-01

----------------------------Description of solution----------------------------

                                       pH  =   1.248      Charge balance
                                       pe  =   4.323      Adjusted to redox equilibrium
      Specific Conductance (µS/cm,  16°C)  = 20123
                          Density (g/cm³)  =   1.02321
                               Volume (L)  =   1.02203
                        Viscosity (mPa s)  =   1.11745
                        Activity of water  =   0.991
                 Ionic strength (mol/kgw)  =   6.700e-02
                       Mass of water (kg)  =   1.000e+00
                 Total alkalinity (eq/kg)  =  -4.668e-01
                         Temperature (°C)  =  15.90
                  Electrical balance (eq)  =   2.961e-15
 Percent error, 100*(Cat-|An|)/(Cat+|An|)  =   0.00
                               Iterations  =  17
                                  Total H  = 1.124128e+02
                                  Total O  = 5.737342e+01

----------------------------Distribution of species----------------------------

                                               Log       Log       Log    mole V
   Species          Molality    Activity  Molality  Activity     Gamma   cm³/mol

   H+              6.700e-02   5.653e-02    -1.174    -1.248    -0.074      0.00
   OH-             1.081e-13   8.576e-14   -12.966   -13.067    -0.100     -4.30
   H2O             5.551e+01   9.909e-01     1.744    -0.004     0.000     18.03
H(0)          1.106e-14
   H2              5.531e-15   5.622e-15   -14.257   -14.250     0.007     14.24
O(0)          0.000e+00
   O2              0.000e+00   0.000e+00   -66.999   -66.992     0.007     29.60
P             4.668e-01
   H3PO4           3.998e-01   4.060e-01    -0.398    -0.391     0.007     46.84
   H2PO4-          6.700e-02   5.456e-02    -1.174    -1.263    -0.089     33.67
   HPO4-2          1.319e-07   5.685e-08    -6.880    -7.245    -0.365      7.73
   PO4-3           2.814e-18   3.758e-19   -17.551   -18.425    -0.874    -20.77

------------------------------Saturation indices-------------------------------

  Phase               SI** log IAP   log K(289 K,   1 atm)

  H2(g)           -11.17    -14.25   -3.08  H2
  H2O(g)           -1.75     -0.00    1.74  H2O
  O2(g)           -64.17    -66.99   -2.82  O2

**For a gas, SI = log10(fugacity). Fugacity = pressure * phi / 1 atm.
  For ideal gases, phi = 1.

Reaction step 3.

Using solution 1.	
Using temperature 1.	
Using pressure 1.	
Using reaction 1.	

Reaction 1.	

	  1.032e+00 moles of the following reaction have been added:

	                 Relative
	Reactant            moles

	H3PO4                1.00000

	                 Relative
	Element             moles
	H                    3.00000
	O                    4.00000
	P                    1.00000

-----------------------------Solution composition------------------------------

	Elements           Molality       Moles

	P                 1.031e+00   1.032e+00

----------------------------Description of solution----------------------------

                                       pH  =   1.061      Charge balance
                                       pe  =   4.858      Adjusted to redox equilibrium
      Specific Conductance (µS/cm,  16°C)  = 29798
                          Density (g/cm³)  =   1.05067
                               Volume (L)  =   1.04798
                        Viscosity (mPa s)  =   1.12087
                        Activity of water  =   0.981
                 Ionic strength (mol/kgw)  =   1.053e-01
                       Mass of water (kg)  =   1.000e+00
                 Total alkalinity (eq/kg)  =  -1.031e+00
                         Temperature (°C)  =  15.90
                  Electrical balance (eq)  =  -8.308e-12
 Percent error, 100*(Cat-|An|)/(Cat+|An|)  =  -0.00
                               Iterations  =  26
                                  Total H  = 1.141069e+02
                                  Total O  = 5.963222e+01

----------------------------Distribution of species----------------------------

                                               Log       Log       Log    mole V
   Species          Molality    Activity  Molality  Activity     Gamma   cm³/mol

   H+              1.053e-01   8.690e-02    -0.978    -1.061    -0.083      0.00
   OH-             7.260e-14   5.521e-14   -13.139   -13.258    -0.119     -4.20
   H2O             5.551e+01   9.807e-01     1.744    -0.008     0.000     18.03
H(0)          2.206e-15
   H2              1.103e-15   1.131e-15   -14.957   -14.946     0.011     14.24
O(0)          0.000e+00
   O2              0.000e+00   0.000e+00   -65.619   -65.609     0.011     29.60
P             1.031e+00
   H3PO4           9.262e-01   9.489e-01    -0.033    -0.023     0.011     46.84
   H2PO4-          1.053e-01   8.294e-02    -0.978    -1.081    -0.104     33.76
   HPO4-2          1.500e-07   5.622e-08    -6.824    -7.250    -0.426      7.96
   PO4-3           2.591e-18   2.418e-19   -17.587   -18.617    -1.030    -20.29

------------------------------Saturation indices-------------------------------

  Phase               SI** log IAP   log K(289 K,   1 atm)

  H2(g)           -11.87    -14.95   -3.08  H2
  H2O(g)           -1.75     -0.01    1.74  H2O
  O2(g)           -62.79    -65.61   -2.82  O2

**For a gas, SI = log10(fugacity). Fugacity = pressure * phi / 1 atm.
  For ideal gases, phi = 1.

Reaction step 4.

Using solution 1.	
Using temperature 1.	
Using pressure 1.	
Using reaction 1.	

Reaction 1.	

	  2.378e+00 moles of the following reaction have been added:

	                 Relative
	Reactant            moles

	H3PO4                1.00000

	                 Relative
	Element             moles
	H                    3.00000
	O                    4.00000
	P                    1.00000

-----------------------------Solution composition------------------------------

	Elements           Molality       Moles

	P                 2.378e+00   2.378e+00

----------------------------Description of solution----------------------------

                                       pH  =   0.866      Charge balance
                                       pe  =   4.995      Adjusted to redox equilibrium
      Specific Conductance (µS/cm,  16°C)  = 42036
                          Density (g/cm³)  =   1.11059
                               Volume (L)  =   1.11025
                        Viscosity (mPa s)  =   1.12647
                        Activity of water  =   0.957
                 Ionic strength (mol/kgw)  =   1.688e-01
                       Mass of water (kg)  =   1.000e+00
                 Total alkalinity (eq/kg)  =  -2.378e+00
                         Temperature (°C)  =  15.90
                  Electrical balance (eq)  =  -4.451e-10
 Percent error, 100*(Cat-|An|)/(Cat+|An|)  =  -0.00
                               Iterations  =  60
                                  Total H  = 1.181461e+02
                                  Total O  = 6.501782e+01

----------------------------Distribution of species----------------------------

                                               Log       Log       Log    mole V
   Species          Molality    Activity  Molality  Activity     Gamma   cm³/mol

   H+              1.688e-01   1.361e-01    -0.773    -0.866    -0.093      0.00
   OH-             4.751e-14   3.439e-14   -13.323   -13.464    -0.140     -4.05
   H2O             5.551e+01   9.567e-01     1.744    -0.019     0.000     18.03
H(0)          2.829e-15
   H2              1.415e-15   1.473e-15   -14.849   -14.832     0.018     14.24
O(0)          0.000e+00
   O2              0.000e+00   0.000e+00   -65.877   -65.860     0.017     29.60
P             2.378e+00
   H3PO4           2.209e+00   2.297e+00     0.344     0.361     0.017     46.84
   H2PO4-          1.688e-01   1.282e-01    -0.773    -0.892    -0.120     33.90
   HPO4-2          1.729e-07   5.546e-08    -6.762    -7.256    -0.494      8.26
   PO4-3           2.460e-18   1.523e-19   -17.609   -18.817    -1.208    -19.67

------------------------------Saturation indices-------------------------------

  Phase               SI** log IAP   log K(289 K,   1 atm)

  H2(g)           -11.75    -14.83   -3.08  H2
  H2O(g)           -1.76     -0.02    1.74  H2O
  O2(g)           -63.04    -65.86   -2.82  O2

**For a gas, SI = log10(fugacity). Fugacity = pressure * phi / 1 atm.
  For ideal gases, phi = 1.

Reaction step 5.

Using solution 1.	
Using temperature 1.	
Using pressure 1.	
Using reaction 1.	

Reaction 1.	

	  4.151e+00 moles of the following reaction have been added:

	                 Relative
	Reactant            moles

	H3PO4                1.00000

	                 Relative
	Element             moles
	H                    3.00000
	O                    4.00000
	P                    1.00000

-----------------------------Solution composition------------------------------

	Elements           Molality       Moles

	P                 4.150e+00   4.151e+00

----------------------------Description of solution----------------------------

                                       pH  =   0.736      Charge balance
                                       pe  =  17.960      Adjusted to redox equilibrium
      Specific Conductance (µS/cm,  16°C)  = 49350
                          Density (g/cm³)  =   1.17965
                               Volume (L)  =   1.19250
                        Viscosity (mPa s)  =   1.13191
                        Activity of water  =   0.926
                 Ionic strength (mol/kgw)  =   2.311e-01
                       Mass of water (kg)  =   1.000e+00
                 Total alkalinity (eq/kg)  =  -4.150e+00
                         Temperature (°C)  =  15.90
                  Electrical balance (eq)  =  -1.885e-13
 Percent error, 100*(Cat-|An|)/(Cat+|An|)  =  -0.00
                               Iterations  =  38
                                  Total H  = 1.234639e+02
                                  Total O  = 7.210822e+01

----------------------------Distribution of species----------------------------

                                               Log       Log       Log    mole V
   Species          Molality    Activity  Molality  Activity     Gamma   cm³/mol

   H+              2.311e-01   1.836e-01    -0.636    -0.736    -0.100      0.00
   OH-             3.532e-14   2.467e-14   -13.452   -13.608    -0.156     -3.93
   H2O             5.551e+01   9.255e-01     1.744    -0.034     0.000     18.03
H(0)          0.000e+00
   H2              0.000e+00   0.000e+00   -40.525   -40.501     0.024     14.24
O(0)          5.347e-15
   O2              2.674e-15   2.820e-15   -14.573   -14.550     0.023     29.60
P             4.150e+00
   H3PO4           3.919e+00   4.134e+00     0.593     0.616     0.023     46.84
   H2PO4-          2.311e-01   1.711e-01    -0.636    -0.767    -0.131     34.02
   HPO4-2          1.907e-07   5.490e-08    -6.720    -7.260    -0.541      8.50
   PO4-3           2.414e-18   1.118e-19   -17.617   -18.952    -1.334    -19.18

------------------------------Saturation indices-------------------------------

  Phase               SI** log IAP   log K(289 K,   1 atm)

  H2(g)           -37.42    -40.50   -3.08  H2
  H2O(g)           -1.78     -0.03    1.74  H2O
  O2(g)           -11.73    -14.55   -2.82  O2

**For a gas, SI = log10(fugacity). Fugacity = pressure * phi / 1 atm.
  For ideal gases, phi = 1.

Reaction step 6.

Using solution 1.	
Using temperature 1.	
Using pressure 1.	
Using reaction 1.	

Reaction 1.	

	  6.434e+00 moles of the following reaction have been added:

	                 Relative
	Reactant            moles

	H3PO4                1.00000

	                 Relative
	Element             moles
	H                    3.00000
	O                    4.00000
	P                    1.00000

-----------------------------Solution composition------------------------------

	Elements           Molality       Moles

	P                 6.434e+00   6.434e+00

----------------------------Description of solution----------------------------

                                       pH  =   0.634      Charge balance
                                       pe  =  18.200      Adjusted to redox equilibrium
      Specific Conductance (µS/cm,  16°C)  = 52747
                          Density (g/cm³)  =   1.25553
                               Volume (L)  =   1.29868
                        Viscosity (mPa s)  =   1.13756
                        Activity of water  =   0.886
                 Ionic strength (mol/kgw)  =   2.960e-01
                       Mass of water (kg)  =   1.000e+00
                 Total alkalinity (eq/kg)  =  -6.434e+00
                         Temperature (°C)  =  15.90
                  Electrical balance (eq)  =   2.413e-11
 Percent error, 100*(Cat-|An|)/(Cat+|An|)  =   0.00
                               Iterations  =  62
                                  Total H  = 1.303147e+02
                                  Total O  = 8.124262e+01

----------------------------Distribution of species----------------------------

                                               Log       Log       Log    mole V
   Species          Molality    Activity  Molality  Activity     Gamma   cm³/mol

   H+              2.960e-01   2.324e-01    -0.529    -0.634    -0.105      0.00
   OH-             2.748e-14   1.864e-14   -13.561   -13.729    -0.168     -3.80
   H2O             5.551e+01   8.856e-01     1.744    -0.053     0.000     18.03
H(0)          0.000e+00
   H2              0.000e+00   0.000e+00   -40.808   -40.777     0.031     14.24
O(0)          1.722e-14
   O2              8.608e-15   9.215e-15   -14.065   -14.036     0.030     29.60
P             6.434e+00
   H3PO4           6.138e+00   6.571e+00     0.788     0.818     0.030     46.84
   H2PO4-          2.960e-01   2.148e-01    -0.529    -0.668    -0.139     34.14
   HPO4-2          2.063e-07   5.443e-08    -6.686    -7.264    -0.579      8.72
   PO4-3           2.395e-18   8.752e-20   -17.621   -19.058    -1.437    -18.74

------------------------------Saturation indices-------------------------------

  Phase               SI** log IAP   log K(289 K,   1 atm)

  H2(g)           -37.70    -40.78   -3.08  H2
  H2O(g)           -1.80     -0.05    1.74  H2O
  O2(g)           -11.22    -14.04   -2.82  O2

**For a gas, SI = log10(fugacity). Fugacity = pressure * phi / 1 atm.
  For ideal gases, phi = 1.

------------------
End of simulation.
------------------

------------------------------------
Reading input data for simulation 4.
------------------------------------

	KNOBS
	iterations 1000
	USE solution 1
	REACTION_TEMPERATURE
	 25.000000
	REACTION_PRESSURE
	 1.000000
	REACTION
	 H3PO4 1
	0 0.010000 0.020000 0.030100 0.040200 0.049100 0.050000 0.050300 0.060400 0.060700 0.070500 0.080600 0.090800 0.094100 0.099600 0.101000 0.105500 0.111200 0.121500 0.127200 0.131700 0.142000 0.152300 0.162600 0.172900 0.183300 0.193700 0.204100 0.214500 0.225000 0.235400 0.245900 0.256400 0.267000 0.268600 0.277500 0.288100 0.298700 0.300100 0.309300 0.319900 0.320600 0.330600 0.341300 0.352000 0.362700 0.373500 0.384200 0.395000 0.405800 0.416700 0.427500 0.438400 0.438700 0.449300 0.460300 0.466800 0.471200 0.482200 0.493200 0.500000 0.504200 0.515300 0.526300 0.537400 0.545000 0.548500 0.559700 0.570900 0.582000 0.593200 0.604500 0.615700 0.627000 0.638300 0.699200 0.752700 0.778200 0.808200 0.869600 0.989100 1.000600 1.014200 1.021400 1.031500 1.111200 1.210700 1.236000 1.363700 1.494300 1.628000 1.764800 1.904800 2.048300 2.195200 2.345800 2.377900 2.500100 2.658400 2.820600 2.987200 3.158000 3.333500 3.513700 3.698800 3.889100 4.084700 4.150500 4.285900 4.493000 4.706100 4.925600 5.151800 5.384900 5.625300 5.873300 6.129300 6.393700 6.434100 6.667000 6.949500 7.241700 7.544200 7.857500 8.182200 8.518900 8.868300 9.231200 9.608300 10.000500 10.408600 10.833800 11.277100 11.739700 12.222800 12.727900 13.256400 13.810200 14.390900 
	USER_GRAPH
	 -headings 25.oC,.1.atm density
	10 data 0, 997.600000, 998.100000, 998.700000, 999.300000, 999.730000, 999.770000, 999.800000, 1000.400000, 1000.360000, 1000.900000, 1001.500000, 1002.000000, 1002.140000, 1002.430000, 1002.600000, 1002.900000, 1003.100000, 1003.700000, 1004.080000, 1004.200000, 1004.700000, 1005.300000, 1005.800000, 1006.400000, 1006.900000, 1007.500000, 1008.000000, 1008.500000, 1009.100000, 1009.600000, 1010.100000, 1010.700000, 1011.200000, 1011.100000, 1011.800000, 1012.300000, 1012.900000, 1012.690000, 1013.400000, 1014.000000, 1014.270000, 1014.500000, 1015.100000, 1015.600000, 1016.200000, 1016.700000, 1017.300000, 1017.800000, 1018.300000, 1018.900000, 1019.500000, 1020.000000, 1019.630000, 1020.600000, 1021.100000, 1021.300000, 1021.700000, 1022.200000, 1022.800000, 1022.660000, 1023.300000, 1023.900000, 1024.400000, 1025.000000, 1025.760000, 1025.500000, 1026.100000, 1026.600000, 1027.200000, 1027.800000, 1028.300000, 1028.900000, 1029.400000, 1030.000000, 1032.370000, 1035.600000, 1037.410000, 1037.520000, 1041.200000, 1046.900000, 1046.540000, 1047.180000, 1049.260000, 1048.900000, 1052.700000, 1056.220000, 1058.400000, 1064.300000, 1070.200000, 1076.200000, 1082.200000, 1088.300000, 1094.400000, 1100.500000, 1106.800000, 1107.200000, 1113.100000, 1119.500000, 1125.900000, 1132.400000, 1138.900000, 1145.500000, 1152.200000, 1158.900000, 1165.700000, 1172.600000, 1174.200000, 1179.500000, 1186.500000, 1193.600000, 1200.700000, 1207.900000, 1215.100000, 1222.500000, 1229.900000, 1237.400000, 1244.900000, 1246.100000, 1252.600000, 1260.300000, 1268.100000, 1275.900000, 1283.900000, 1291.900000, 1300.100000, 1308.300000, 1316.500000, 1324.900000, 1333.300000, 1341.800000, 1350.400000, 1359.100000, 1367.800000, 1376.700000, 1385.600000, 1394.600000, 1403.700000, 1412.900000, 
	20 dim d(139)
	30 read d(1), d(2), d(3), d(4), d(5), d(6), d(7), d(8), d(9), d(10), d(11), d(12), d(13), d(14), d(15), d(16), d(17), d(18), d(19), d(20), d(21), d(22), d(23), d(24), d(25), d(26), d(27), d(28), d(29), d(30), d(31), d(32), d(33), d(34), d(35), d(36), d(37), d(38), d(39), d(40), d(41), d(42), d(43), d(44), d(45), d(46), d(47), d(48), d(49), d(50), d(51), d(52), d(53), d(54), d(55), d(56), d(57), d(58), d(59), d(60), d(61), d(62), d(63), d(64), d(65), d(66), d(67), d(68), d(69), d(70), d(71), d(72), d(73), d(74), d(75), d(76), d(77), d(78), d(79), d(80), d(81), d(82), d(83), d(84), d(85), d(86), d(87), d(88), d(89), d(90), d(91), d(92), d(93), d(94), d(95), d(96), d(97), d(98), d(99), d(100), d(101), d(102), d(103), d(104), d(105), d(106), d(107), d(108), d(109), d(110), d(111), d(112), d(113), d(114), d(115), d(116), d(117), d(118), d(119), d(120), d(121), d(122), d(123), d(124), d(125), d(126), d(127), d(128), d(129), d(130), d(131), d(132), d(133), d(134), d(135), d(136), d(137), d(138), d(139), 
	40 if step_no = 1 then put(rho, 10)
	50 if step_no > 1 then Vmol = 1 * Vm("H+") + 1 * Vm("H2PO4-")
	60 if step_no = 1 then dif = 0 else dif = rho * 1e3 - d(step_no)
	90 if step_no = 139 then put(step_no + get(1), 1)
	100 if step_no = 1 then end
	110 plot_xy tot("P"), d(step_no), symbol = Diamond, line_w = 0, color = Green
	120 plot_xy tot("P"), 1e3 * rho, symbol = None, color = Green, y_axis = 2 
	150 end
	END
-----------------------------------------
Beginning of batch-reaction calculations.
-----------------------------------------

Reaction step 1.

Using solution 1.	
Using temperature 1.	
Using pressure 1.	
Using reaction 1.	

Reaction 1.	

	  0.000e+00 moles of the following reaction have been added:

	                 Relative
	Reactant            moles

	H3PO4                1.00000

	                 Relative
	Element             moles
	H                    3.00000
	O                    4.00000
	P                    1.00000

-----------------------------Solution composition------------------------------

	Elements           Molality       Moles

	Pure water     

----------------------------Description of solution----------------------------

                                       pH  =   6.997      Charge balance
                                       pe  =   4.000      Adjusted to redox equilibrium
      Specific Conductance (µS/cm,  25°C)  = 0
                          Density (g/cm³)  =   0.99704
                               Volume (L)  =   1.00297
                        Viscosity (mPa s)  =   0.89002
                        Activity of water  =   1.000
                 Ionic strength (mol/kgw)  =   1.006e-07
                       Mass of water (kg)  =   1.000e+00
                 Total alkalinity (eq/kg)  =   3.040e-17
                         Temperature (°C)  =  25.00
                  Electrical balance (eq)  =  -3.040e-17
 Percent error, 100*(Cat-|An|)/(Cat+|An|)  =  -0.00
                               Iterations  =   0
                                  Total H  = 1.110124e+02
                                  Total O  = 5.550622e+01

----------------------------Distribution of species----------------------------

                                               Log       Log       Log    mole V
   Species          Molality    Activity  Molality  Activity     Gamma   cm³/mol

   OH-             1.006e-07   1.006e-07    -6.997    -6.997    -0.000     -4.14
   H+              1.006e-07   1.006e-07    -6.997    -6.997    -0.000      0.00
   H2O             5.551e+01   1.000e+00     1.744    -0.000     0.000     18.07
H(0)          1.433e-25
   H2              7.166e-26   7.166e-26   -25.145   -25.145     0.000     14.99
O(0)          0.000e+00
   O2              0.000e+00   0.000e+00   -42.073   -42.073     0.000     30.40

------------------------------Saturation indices-------------------------------

  Phase               SI** log IAP   log K(298 K,   1 atm)

  H2(g)           -22.05    -25.14   -3.10  H2
  H2O(g)           -1.50     -0.00    1.50  H2O
  O2(g)           -39.18    -42.07   -2.89  O2

**For a gas, SI = log10(fugacity). Fugacity = pressure * phi / 1 atm.
  For ideal gases, phi = 1.

Reaction step 2.

Using solution 1.	
Using temperature 1.	
Using pressure 1.	
Using reaction 1.	

Reaction 1.	

	  1.000e-02 moles of the following reaction have been added:

	                 Relative
	Reactant            moles

	H3PO4                1.00000

	                 Relative
	Element             moles
	H                    3.00000
	O                    4.00000
	P                    1.00000

-----------------------------Solution composition------------------------------

	Elements           Molality       Moles

	P                 1.000e-02   1.000e-02

----------------------------Description of solution----------------------------

                                       pH  =   2.270      Charge balance
                                       pe  =   3.577      Adjusted to redox equilibrium
      Specific Conductance (µS/cm,  25°C)  = 2138
                          Density (g/cm³)  =   0.99763
                               Volume (L)  =   1.00336
                        Viscosity (mPa s)  =   0.89076
                        Activity of water  =   1.000
                 Ionic strength (mol/kgw)  =   5.780e-03
                       Mass of water (kg)  =   1.000e+00
                 Total alkalinity (eq/kg)  =  -1.000e-02
                         Temperature (°C)  =  25.00
                  Electrical balance (eq)  =   2.789e-16
 Percent error, 100*(Cat-|An|)/(Cat+|An|)  =   0.00
                               Iterations  =  14
                                  Total H  = 1.110424e+02
                                  Total O  = 5.554622e+01

----------------------------Distribution of species----------------------------

                                               Log       Log       Log    mole V
   Species          Molality    Activity  Molality  Activity     Gamma   cm³/mol

   H+              5.780e-03   5.373e-03    -2.238    -2.270    -0.032      0.00
   OH-             2.044e-12   1.883e-12   -11.689   -11.725    -0.036     -4.06
   H2O             5.551e+01   9.997e-01     1.744    -0.000     0.000     18.07
H(0)          2.870e-15
   H2              1.435e-15   1.437e-15   -14.843   -14.843     0.001     14.99
O(0)          0.000e+00
   O2              0.000e+00   0.000e+00   -62.678   -62.678     0.001     30.40
P             1.000e-02
   H2PO4-          5.779e-03   5.342e-03    -2.238    -2.272    -0.034     33.26
   H3PO4           4.221e-03   4.226e-03    -2.375    -2.374     0.001     47.41
   HPO4-2          8.479e-08   6.173e-08    -7.072    -7.210    -0.138      6.88
   PO4-3           1.075e-17   5.179e-18   -16.968   -17.286    -0.317    -22.87

------------------------------Saturation indices-------------------------------

  Phase               SI** log IAP   log K(298 K,   1 atm)

  H2(g)           -11.74    -14.84   -3.10  H2
  H2O(g)           -1.50     -0.00    1.50  H2O
  O2(g)           -59.79    -62.68   -2.89  O2

**For a gas, SI = log10(fugacity). Fugacity = pressure * phi / 1 atm.
  For ideal gases, phi = 1.

Reaction step 3.

Using solution 1.	
Using temperature 1.	
Using pressure 1.	
Using reaction 1.	

Reaction 1.	

	  2.000e-02 moles of the following reaction have been added:

	                 Relative
	Reactant            moles

	H3PO4                1.00000

	                 Relative
	Element             moles
	H                    3.00000
	O                    4.00000
	P                    1.00000

-----------------------------Solution composition------------------------------

	Elements           Molality       Moles

	P                 2.000e-02   2.000e-02

----------------------------Description of solution----------------------------

                                       pH  =   2.068      Charge balance
                                       pe  =   3.628      Adjusted to redox equilibrium
      Specific Conductance (µS/cm,  25°C)  = 3436
                          Density (g/cm³)  =   0.99818
                               Volume (L)  =   1.00378
                        Viscosity (mPa s)  =   0.89113
                        Activity of water  =   1.000
                 Ionic strength (mol/kgw)  =   9.343e-03
                       Mass of water (kg)  =   1.000e+00
                 Total alkalinity (eq/kg)  =  -2.000e-02
                         Temperature (°C)  =  25.00
                  Electrical balance (eq)  =  -1.790e-15
 Percent error, 100*(Cat-|An|)/(Cat+|An|)  =  -0.00
                               Iterations  =  14
                                  Total H  = 1.110724e+02
                                  Total O  = 5.558622e+01

----------------------------Distribution of species----------------------------

                                               Log       Log       Log    mole V
   Species          Molality    Activity  Molality  Activity     Gamma   cm³/mol

   H+              9.343e-03   8.554e-03    -2.030    -2.068    -0.038      0.00
   OH-             1.310e-12   1.183e-12   -11.883   -11.927    -0.044     -4.04
   H2O             5.551e+01   9.995e-01     1.744    -0.000     0.000     18.07
H(0)          5.737e-15
   H2              2.868e-15   2.875e-15   -14.542   -14.541     0.001     14.99
O(0)          0.000e+00
   O2              0.000e+00   0.000e+00   -63.281   -63.280     0.001     30.40
P             2.000e-02
   H3PO4           1.066e-02   1.068e-02    -1.972    -1.971     0.001     47.41
   H2PO4-          9.343e-03   8.480e-03    -2.030    -2.072    -0.042     33.28
   HPO4-2          9.108e-08   6.155e-08    -7.041    -7.211    -0.170      6.96
   PO4-3           8.031e-18   3.244e-18   -17.095   -17.489    -0.394    -22.70

------------------------------Saturation indices-------------------------------

  Phase               SI** log IAP   log K(298 K,   1 atm)

  H2(g)           -11.44    -14.54   -3.10  H2
  H2O(g)           -1.50     -0.00    1.50  H2O
  O2(g)           -60.39    -63.28   -2.89  O2

**For a gas, SI = log10(fugacity). Fugacity = pressure * phi / 1 atm.
  For ideal gases, phi = 1.

Reaction step 4.

Using solution 1.	
Using temperature 1.	
Using pressure 1.	
Using reaction 1.	

Reaction 1.	

	  3.010e-02 moles of the following reaction have been added:

	                 Relative
	Reactant            moles

	H3PO4                1.00000

	                 Relative
	Element             moles
	H                    3.00000
	O                    4.00000
	P                    1.00000

-----------------------------Solution composition------------------------------

	Elements           Molality       Moles

	P                 3.010e-02   3.010e-02

----------------------------Description of solution----------------------------

                                       pH  =   1.955      Charge balance
                                       pe  =   3.724      Adjusted to redox equilibrium
      Specific Conductance (µS/cm,  25°C)  = 4480
                          Density (g/cm³)  =   0.99873
                               Volume (L)  =   1.00422
                        Viscosity (mPa s)  =   0.89142
                        Activity of water  =   0.999
                 Ionic strength (mol/kgw)  =   1.223e-02
                       Mass of water (kg)  =   1.000e+00
                 Total alkalinity (eq/kg)  =  -3.010e-02
                         Temperature (°C)  =  25.00
                  Electrical balance (eq)  =  -1.185e-12
 Percent error, 100*(Cat-|An|)/(Cat+|An|)  =  -0.00
                               Iterations  =  14
                                  Total H  = 1.111027e+02
                                  Total O  = 5.562662e+01

----------------------------Distribution of species----------------------------

                                               Log       Log       Log    mole V
   Species          Molality    Activity  Molality  Activity     Gamma   cm³/mol

   H+              1.223e-02   1.109e-02    -1.913    -1.955    -0.043      0.00
   OH-             1.023e-12   9.119e-13   -11.990   -12.040    -0.050     -4.02
   H2O             5.551e+01   9.993e-01     1.744    -0.000     0.000     18.07
H(0)          6.180e-15
   H2              3.090e-15   3.099e-15   -14.510   -14.509     0.001     14.99
O(0)          0.000e+00
   O2              0.000e+00   0.000e+00   -63.347   -63.346     0.001     30.40
P             3.010e-02
   H3PO4           1.787e-02   1.792e-02    -1.748    -1.747     0.001     47.41
   H2PO4-          1.223e-02   1.097e-02    -1.913    -1.960    -0.047     33.29
   HPO4-2          9.534e-08   6.143e-08    -7.021    -7.212    -0.191      7.01
   PO4-3           6.928e-18   2.497e-18   -17.159   -17.603    -0.443    -22.58

------------------------------Saturation indices-------------------------------

  Phase               SI** log IAP   log K(298 K,   1 atm)

  H2(g)           -11.41    -14.51   -3.10  H2
  H2O(g)           -1.50     -0.00    1.50  H2O
  O2(g)           -60.45    -63.35   -2.89  O2

**For a gas, SI = log10(fugacity). Fugacity = pressure * phi / 1 atm.
  For ideal gases, phi = 1.

Reaction step 5.

Using solution 1.	
Using temperature 1.	
Using pressure 1.	
Using reaction 1.	

Reaction 1.	

	  4.020e-02 moles of the following reaction have been added:

	                 Relative
	Reactant            moles

	H3PO4                1.00000

	                 Relative
	Element             moles
	H                    3.00000
	O                    4.00000
	P                    1.00000

-----------------------------Solution composition------------------------------

	Elements           Molality       Moles

	P                 4.020e-02   4.020e-02

----------------------------Description of solution----------------------------

                                       pH  =   1.878      Charge balance
                                       pe  =  15.958      Adjusted to redox equilibrium
      Specific Conductance (µS/cm,  25°C)  = 5377
                          Density (g/cm³)  =   0.99928
                               Volume (L)  =   1.00466
                        Viscosity (mPa s)  =   0.89167
                        Activity of water  =   0.999
                 Ionic strength (mol/kgw)  =   1.472e-02
                       Mass of water (kg)  =   1.000e+00
                 Total alkalinity (eq/kg)  =  -4.020e-02
                         Temperature (°C)  =  25.00
                  Electrical balance (eq)  =  -8.123e-13
 Percent error, 100*(Cat-|An|)/(Cat+|An|)  =  -0.00
                               Iterations  =  15
                                  Total H  = 1.111330e+02
                                  Total O  = 5.566702e+01

----------------------------Distribution of species----------------------------

                                               Log       Log       Log    mole V
   Species          Molality    Activity  Molality  Activity     Gamma   cm³/mol

   H+              1.472e-02   1.326e-02    -1.832    -1.878    -0.046      0.00
   OH-             8.643e-13   7.627e-13   -12.063   -12.118    -0.054     -4.01
   H2O             5.551e+01   9.991e-01     1.744    -0.000     0.000     18.07
H(0)          3.004e-39
   H2              1.502e-39   1.508e-39   -38.823   -38.822     0.002     14.99
O(0)          3.798e-15
   O2              1.899e-15   1.906e-15   -14.721   -14.720     0.001     30.40
P             4.020e-02
   H3PO4           2.548e-02   2.556e-02    -1.594    -1.592     0.001     47.41
   H2PO4-          1.472e-02   1.310e-02    -1.832    -1.883    -0.051     33.31
   HPO4-2          9.864e-08   6.132e-08    -7.006    -7.212    -0.206      7.05
   PO4-3           6.303e-18   2.085e-18   -17.200   -17.681    -0.480    -22.49

------------------------------Saturation indices-------------------------------

  Phase               SI** log IAP   log K(298 K,   1 atm)

  H2(g)           -35.72    -38.82   -3.10  H2
  H2O(g)           -1.50     -0.00    1.50  H2O
  O2(g)           -11.83    -14.72   -2.89  O2

**For a gas, SI = log10(fugacity). Fugacity = pressure * phi / 1 atm.
  For ideal gases, phi = 1.

Reaction step 6.

Using solution 1.	
Using temperature 1.	
Using pressure 1.	
Using reaction 1.	

Reaction 1.	

	  4.910e-02 moles of the following reaction have been added:

	                 Relative
	Reactant            moles

	H3PO4                1.00000

	                 Relative
	Element             moles
	H                    3.00000
	O                    4.00000
	P                    1.00000

-----------------------------Solution composition------------------------------

	Elements           Molality       Moles

	P                 4.910e-02   4.910e-02

----------------------------Description of solution----------------------------

                                       pH  =   1.825      Charge balance
                                       pe  =   3.818      Adjusted to redox equilibrium
      Specific Conductance (µS/cm,  25°C)  = 6084
                          Density (g/cm³)  =   0.99975
                               Volume (L)  =   1.00506
                        Viscosity (mPa s)  =   0.89187
                        Activity of water  =   0.999
                 Ionic strength (mol/kgw)  =   1.670e-02
                       Mass of water (kg)  =   1.000e+00
                 Total alkalinity (eq/kg)  =  -4.910e-02
                         Temperature (°C)  =  25.00
                  Electrical balance (eq)  =   1.064e-14
 Percent error, 100*(Cat-|An|)/(Cat+|An|)  =   0.00
                               Iterations  =  15
                                  Total H  = 1.111597e+02
                                  Total O  = 5.570262e+01

----------------------------Distribution of species----------------------------

                                               Log       Log       Log    mole V
   Species          Molality    Activity  Molality  Activity     Gamma   cm³/mol

   H+              1.670e-02   1.496e-02    -1.777    -1.825    -0.048      0.00
   OH-             7.711e-13   6.756e-13   -12.113   -12.170    -0.057     -4.00
   H2O             5.551e+01   9.989e-01     1.744    -0.000     0.000     18.07
H(0)          7.288e-15
   H2              3.644e-15   3.659e-15   -14.438   -14.437     0.002     14.99
O(0)          0.000e+00
   O2              0.000e+00   0.000e+00   -63.492   -63.490     0.002     30.40
P             4.910e-02
   H3PO4           3.240e-02   3.252e-02    -1.489    -1.488     0.002     47.41
   H2PO4-          1.670e-02   1.476e-02    -1.777    -1.831    -0.054     33.32
   HPO4-2          1.011e-07   6.124e-08    -6.995    -7.213    -0.217      7.08
   PO4-3           5.931e-18   1.845e-18   -17.227   -17.734    -0.507    -22.43

------------------------------Saturation indices-------------------------------

  Phase               SI** log IAP   log K(298 K,   1 atm)

  H2(g)           -11.34    -14.44   -3.10  H2
  H2O(g)           -1.50     -0.00    1.50  H2O
  O2(g)           -60.60    -63.49   -2.89  O2

**For a gas, SI = log10(fugacity). Fugacity = pressure * phi / 1 atm.
  For ideal gases, phi = 1.

Reaction step 7.

Using solution 1.	
Using temperature 1.	
Using pressure 1.	
Using reaction 1.	

Reaction 1.	

	  5.000e-02 moles of the following reaction have been added:

	                 Relative
	Reactant            moles

	H3PO4                1.00000

	                 Relative
	Element             moles
	H                    3.00000
	O                    4.00000
	P                    1.00000

-----------------------------Solution composition------------------------------

	Elements           Molality       Moles

	P                 5.000e-02   5.000e-02

----------------------------Description of solution----------------------------

                                       pH  =   1.820      Charge balance
                                       pe  =  15.006      Adjusted to redox equilibrium
      Specific Conductance (µS/cm,  25°C)  = 6152
                          Density (g/cm³)  =   0.99980
                               Volume (L)  =   1.00510
                        Viscosity (mPa s)  =   0.89189
                        Activity of water  =   0.999
                 Ionic strength (mol/kgw)  =   1.689e-02
                       Mass of water (kg)  =   1.000e+00
                 Total alkalinity (eq/kg)  =  -5.000e-02
                         Temperature (°C)  =  25.00
                  Electrical balance (eq)  =  -9.997e-15
 Percent error, 100*(Cat-|An|)/(Cat+|An|)  =  -0.00
                               Iterations  =  15
                                  Total H  = 1.111624e+02
                                  Total O  = 5.570622e+01

----------------------------Distribution of species----------------------------

                                               Log       Log       Log    mole V
   Species          Molality    Activity  Molality  Activity     Gamma   cm³/mol

   H+              1.689e-02   1.513e-02    -1.772    -1.820    -0.048      0.00
   OH-             7.632e-13   6.683e-13   -12.117   -12.175    -0.058     -4.00
   H2O             5.551e+01   9.989e-01     1.744    -0.000     0.000     18.07
H(0)          3.146e-37
   H2              1.573e-37   1.580e-37   -36.803   -36.801     0.002     14.99
O(0)          3.457e-19
   O2              1.728e-19   1.735e-19   -18.762   -18.761     0.002     30.40
P             5.000e-02
   H3PO4           3.311e-02   3.324e-02    -1.480    -1.478     0.002     47.41
   H2PO4-          1.689e-02   1.492e-02    -1.772    -1.826    -0.054     33.32
   HPO4-2          1.013e-07   6.124e-08    -6.994    -7.213    -0.219      7.08
   PO4-3           5.899e-18   1.825e-18   -17.229   -17.739    -0.510    -22.42

------------------------------Saturation indices-------------------------------

  Phase               SI** log IAP   log K(298 K,   1 atm)

  H2(g)           -33.70    -36.80   -3.10  H2
  H2O(g)           -1.50     -0.00    1.50  H2O
  O2(g)           -15.87    -18.76   -2.89  O2

**For a gas, SI = log10(fugacity). Fugacity = pressure * phi / 1 atm.
  For ideal gases, phi = 1.

Reaction step 8.

Using solution 1.	
Using temperature 1.	
Using pressure 1.	
Using reaction 1.	

Reaction 1.	

	  5.030e-02 moles of the following reaction have been added:

	                 Relative
	Reactant            moles

	H3PO4                1.00000

	                 Relative
	Element             moles
	H                    3.00000
	O                    4.00000
	P                    1.00000

-----------------------------Solution composition------------------------------

	Elements           Molality       Moles

	P                 5.030e-02   5.030e-02

----------------------------Description of solution----------------------------

                                       pH  =   1.819      Charge balance
                                       pe  =  16.010      Adjusted to redox equilibrium
      Specific Conductance (µS/cm,  25°C)  = 6174
                          Density (g/cm³)  =   0.99982
                               Volume (L)  =   1.00511
                        Viscosity (mPa s)  =   0.89189
                        Activity of water  =   0.999
                 Ionic strength (mol/kgw)  =   1.696e-02
                       Mass of water (kg)  =   1.000e+00
                 Total alkalinity (eq/kg)  =  -5.030e-02
                         Temperature (°C)  =  25.00
                  Electrical balance (eq)  =   5.605e-16
 Percent error, 100*(Cat-|An|)/(Cat+|An|)  =   0.00
                               Iterations  =  16
                                  Total H  = 1.111633e+02
                                  Total O  = 5.570742e+01

----------------------------Distribution of species----------------------------

                                               Log       Log       Log    mole V
   Species          Molality    Activity  Molality  Activity     Gamma   cm³/mol

   H+              1.696e-02   1.518e-02    -1.771    -1.819    -0.048      0.00
   OH-             7.606e-13   6.659e-13   -12.119   -12.177    -0.058     -4.00
   H2O             5.551e+01   9.989e-01     1.744    -0.000     0.000     18.07
H(0)          3.098e-39
   H2              1.549e-39   1.555e-39   -38.810   -38.808     0.002     14.99
O(0)          3.566e-15
   O2              1.783e-15   1.790e-15   -14.749   -14.747     0.002     30.40
P             5.030e-02
   H3PO4           3.334e-02   3.347e-02    -1.477    -1.475     0.002     47.41
   H2PO4-          1.696e-02   1.497e-02    -1.771    -1.825    -0.054     33.32
   HPO4-2          1.014e-07   6.123e-08    -6.994    -7.213    -0.219      7.08
   PO4-3           5.889e-18   1.818e-18   -17.230   -17.740    -0.510    -22.42

------------------------------Saturation indices-------------------------------

  Phase               SI** log IAP   log K(298 K,   1 atm)

  H2(g)           -35.71    -38.81   -3.10  H2
  H2O(g)           -1.50     -0.00    1.50  H2O
  O2(g)           -11.85    -14.75   -2.89  O2

**For a gas, SI = log10(fugacity). Fugacity = pressure * phi / 1 atm.
  For ideal gases, phi = 1.

Reaction step 9.

Using solution 1.	
Using temperature 1.	
Using pressure 1.	
Using reaction 1.	

Reaction 1.	

	  6.040e-02 moles of the following reaction have been added:

	                 Relative
	Reactant            moles

	H3PO4                1.00000

	                 Relative
	Element             moles
	H                    3.00000
	O                    4.00000
	P                    1.00000

-----------------------------Solution composition------------------------------

	Elements           Molality       Moles

	P                 6.040e-02   6.040e-02

----------------------------Description of solution----------------------------

                                       pH  =   1.771      Charge balance
                                       pe  =   3.862      Adjusted to redox equilibrium
      Specific Conductance (µS/cm,  25°C)  = 6901
                          Density (g/cm³)  =   1.00036
                               Volume (L)  =   1.00556
                        Viscosity (mPa s)  =   0.89210
                        Activity of water  =   0.999
                 Ionic strength (mol/kgw)  =   1.900e-02
                       Mass of water (kg)  =   1.000e+00
                 Total alkalinity (eq/kg)  =  -6.040e-02
                         Temperature (°C)  =  25.00
                  Electrical balance (eq)  =  -7.390e-13
 Percent error, 100*(Cat-|An|)/(Cat+|An|)  =  -0.00
                               Iterations  =  15
                                  Total H  = 1.111936e+02
                                  Total O  = 5.574782e+01

----------------------------Distribution of species----------------------------

                                               Log       Log       Log    mole V
   Species          Molality    Activity  Molality  Activity     Gamma   cm³/mol

   H+              1.900e-02   1.693e-02    -1.721    -1.771    -0.050      0.00
   OH-             6.864e-13   5.969e-13   -12.163   -12.224    -0.061     -3.99
   H2O             5.551e+01   9.987e-01     1.744    -0.001     0.000     18.07
H(0)          7.615e-15
   H2              3.807e-15   3.825e-15   -14.419   -14.417     0.002     14.99
O(0)          0.000e+00
   O2              0.000e+00   0.000e+00   -63.531   -63.529     0.002     30.40
P             6.040e-02
   H3PO4           4.140e-02   4.158e-02    -1.383    -1.381     0.002     47.41
   H2PO4-          1.900e-02   1.668e-02    -1.721    -1.778    -0.056     33.33
   HPO4-2          1.037e-07   6.116e-08    -6.984    -7.214    -0.229      7.11
   PO4-3           5.590e-18   1.628e-18   -17.253   -17.788    -0.536    -22.36

------------------------------Saturation indices-------------------------------

  Phase               SI** log IAP   log K(298 K,   1 atm)

  H2(g)           -11.32    -14.42   -3.10  H2
  H2O(g)           -1.50     -0.00    1.50  H2O
  O2(g)           -60.64    -63.53   -2.89  O2

**For a gas, SI = log10(fugacity). Fugacity = pressure * phi / 1 atm.
  For ideal gases, phi = 1.

Reaction step 10.

Using solution 1.	
Using temperature 1.	
Using pressure 1.	
Using reaction 1.	

Reaction 1.	

	  6.070e-02 moles of the following reaction have been added:

	                 Relative
	Reactant            moles

	H3PO4                1.00000

	                 Relative
	Element             moles
	H                    3.00000
	O                    4.00000
	P                    1.00000

-----------------------------Solution composition------------------------------

	Elements           Molality       Moles

	P                 6.070e-02   6.070e-02

----------------------------Description of solution----------------------------

                                       pH  =   1.770      Charge balance
                                       pe  =   4.511      Adjusted to redox equilibrium
      Specific Conductance (µS/cm,  25°C)  = 6922
                          Density (g/cm³)  =   1.00037
                               Volume (L)  =   1.00558
                        Viscosity (mPa s)  =   0.89210
                        Activity of water  =   0.999
                 Ionic strength (mol/kgw)  =   1.906e-02
                       Mass of water (kg)  =   1.000e+00
                 Total alkalinity (eq/kg)  =  -6.070e-02
                         Temperature (°C)  =  25.00
                  Electrical balance (eq)  =  -1.685e-13
 Percent error, 100*(Cat-|An|)/(Cat+|An|)  =  -0.00
                               Iterations  =  17
                                  Total H  = 1.111945e+02
                                  Total O  = 5.574902e+01

----------------------------Distribution of species----------------------------

                                               Log       Log       Log    mole V
   Species          Molality    Activity  Molality  Activity     Gamma   cm³/mol

   H+              1.906e-02   1.698e-02    -1.720    -1.770    -0.050      0.00
   OH-             6.846e-13   5.952e-13   -12.165   -12.225    -0.061     -3.99
   H2O             5.551e+01   9.986e-01     1.744    -0.001     0.000     18.07
H(0)          3.866e-16
   H2              1.933e-16   1.942e-16   -15.714   -15.712     0.002     14.99
O(0)          0.000e+00
   O2              0.000e+00   0.000e+00   -60.942   -60.940     0.002     30.40
P             6.070e-02
   H3PO4           4.164e-02   4.183e-02    -1.380    -1.379     0.002     47.41
   H2PO4-          1.905e-02   1.673e-02    -1.720    -1.777    -0.057     33.33
   HPO4-2          1.038e-07   6.116e-08    -6.984    -7.214    -0.230      7.11
   PO4-3           5.582e-18   1.623e-18   -17.253   -17.790    -0.536    -22.36

------------------------------Saturation indices-------------------------------

  Phase               SI** log IAP   log K(298 K,   1 atm)

  H2(g)           -12.61    -15.71   -3.10  H2
  H2O(g)           -1.50     -0.00    1.50  H2O
  O2(g)           -58.05    -60.94   -2.89  O2

**For a gas, SI = log10(fugacity). Fugacity = pressure * phi / 1 atm.
  For ideal gases, phi = 1.

Reaction step 11.

Using solution 1.	
Using temperature 1.	
Using pressure 1.	
Using reaction 1.	

Reaction 1.	

	  7.050e-02 moles of the following reaction have been added:

	                 Relative
	Reactant            moles

	H3PO4                1.00000

	                 Relative
	Element             moles
	H                    3.00000
	O                    4.00000
	P                    1.00000

-----------------------------Solution composition------------------------------

	Elements           Molality       Moles

	P                 7.050e-02   7.050e-02

----------------------------Description of solution----------------------------

                                       pH  =   1.732      Charge balance
                                       pe  =   3.890      Adjusted to redox equilibrium
      Specific Conductance (µS/cm,  25°C)  = 7573
                          Density (g/cm³)  =   1.00089
                               Volume (L)  =   1.00601
                        Viscosity (mPa s)  =   0.89228
                        Activity of water  =   0.998
                 Ionic strength (mol/kgw)  =   2.089e-02
                       Mass of water (kg)  =   1.000e+00
                 Total alkalinity (eq/kg)  =  -7.050e-02
                         Temperature (°C)  =  25.00
                  Electrical balance (eq)  =  -1.176e-12
 Percent error, 100*(Cat-|An|)/(Cat+|An|)  =  -0.00
                               Iterations  =  15
                                  Total H  = 1.112239e+02
                                  Total O  = 5.578822e+01

----------------------------Distribution of species----------------------------

                                               Log       Log       Log    mole V
   Species          Molality    Activity  Molality  Activity     Gamma   cm³/mol

   H+              2.089e-02   1.855e-02    -1.680    -1.732    -0.052      0.00
   OH-             6.302e-13   5.448e-13   -12.201   -12.264    -0.063     -3.98
   H2O             5.551e+01   9.984e-01     1.744    -0.001     0.000     18.07
H(0)          8.033e-15
   H2              4.016e-15   4.037e-15   -14.396   -14.394     0.002     14.99
O(0)          0.000e+00
   O2              0.000e+00   0.000e+00   -63.578   -63.576     0.002     30.40
P             7.050e-02
   H3PO4           4.961e-02   4.985e-02    -1.304    -1.302     0.002     47.41
   H2PO4-          2.089e-02   1.825e-02    -1.680    -1.739    -0.059     33.34
   HPO4-2          1.057e-07   6.109e-08    -6.976    -7.214    -0.238      7.14
   PO4-3           5.361e-18   1.485e-18   -17.271   -17.828    -0.558    -22.30

------------------------------Saturation indices-------------------------------

  Phase               SI** log IAP   log K(298 K,   1 atm)

  H2(g)           -11.29    -14.39   -3.10  H2
  H2O(g)           -1.50     -0.00    1.50  H2O
  O2(g)           -60.68    -63.58   -2.89  O2

**For a gas, SI = log10(fugacity). Fugacity = pressure * phi / 1 atm.
  For ideal gases, phi = 1.

Reaction step 12.

Using solution 1.	
Using temperature 1.	
Using pressure 1.	
Using reaction 1.	

Reaction 1.	

	  8.060e-02 moles of the following reaction have been added:

	                 Relative
	Reactant            moles

	H3PO4                1.00000

	                 Relative
	Element             moles
	H                    3.00000
	O                    4.00000
	P                    1.00000

-----------------------------Solution composition------------------------------

	Elements           Molality       Moles

	P                 8.060e-02   8.060e-02

----------------------------Description of solution----------------------------

                                       pH  =   1.698      Charge balance
                                       pe  =  16.107      Adjusted to redox equilibrium
      Specific Conductance (µS/cm,  25°C)  = 8201
                          Density (g/cm³)  =   1.00142
                               Volume (L)  =   1.00647
                        Viscosity (mPa s)  =   0.89245
                        Activity of water  =   0.998
                 Ionic strength (mol/kgw)  =   2.267e-02
                       Mass of water (kg)  =   1.000e+00
                 Total alkalinity (eq/kg)  =  -8.060e-02
                         Temperature (°C)  =  25.00
                  Electrical balance (eq)  =   6.645e-13
 Percent error, 100*(Cat-|An|)/(Cat+|An|)  =   0.00
                               Iterations  =  16
                                  Total H  = 1.112542e+02
                                  Total O  = 5.582862e+01

----------------------------Distribution of species----------------------------

                                               Log       Log       Log    mole V
   Species          Molality    Activity  Molality  Activity     Gamma   cm³/mol

   H+              2.267e-02   2.006e-02    -1.645    -1.698    -0.053      0.00
   OH-             5.856e-13   5.037e-13   -12.232   -12.298    -0.065     -3.97
   H2O             5.551e+01   9.982e-01     1.744    -0.001     0.000     18.07
H(0)          3.468e-39
   H2              1.734e-39   1.743e-39   -38.761   -38.759     0.002     14.99
O(0)          2.830e-15
   O2              1.415e-15   1.423e-15   -14.849   -14.847     0.002     30.40
P             8.060e-02
   H3PO4           5.793e-02   5.823e-02    -1.237    -1.235     0.002     47.41
   H2PO4-          2.267e-02   1.972e-02    -1.645    -1.705    -0.061     33.34
   HPO4-2          1.076e-07   6.103e-08    -6.968    -7.214    -0.246      7.16
   PO4-3           5.178e-18   1.372e-18   -17.286   -17.863    -0.577    -22.25

------------------------------Saturation indices-------------------------------

  Phase               SI** log IAP   log K(298 K,   1 atm)

  H2(g)           -35.66    -38.76   -3.10  H2
  H2O(g)           -1.50     -0.00    1.50  H2O
  O2(g)           -11.95    -14.85   -2.89  O2

**For a gas, SI = log10(fugacity). Fugacity = pressure * phi / 1 atm.
  For ideal gases, phi = 1.

Reaction step 13.

Using solution 1.	
Using temperature 1.	
Using pressure 1.	
Using reaction 1.	

Reaction 1.	

	  9.080e-02 moles of the following reaction have been added:

	                 Relative
	Reactant            moles

	H3PO4                1.00000

	                 Relative
	Element             moles
	H                    3.00000
	O                    4.00000
	P                    1.00000

-----------------------------Solution composition------------------------------

	Elements           Molality       Moles

	P                 9.080e-02   9.080e-02

----------------------------Description of solution----------------------------

                                       pH  =   1.668      Charge balance
                                       pe  =   3.998      Adjusted to redox equilibrium
      Specific Conductance (µS/cm,  25°C)  = 8798
                          Density (g/cm³)  =   1.00196
                               Volume (L)  =   1.00693
                        Viscosity (mPa s)  =   0.89262
                        Activity of water  =   0.998
                 Ionic strength (mol/kgw)  =   2.437e-02
                       Mass of water (kg)  =   1.000e+00
                 Total alkalinity (eq/kg)  =  -9.080e-02
                         Temperature (°C)  =  25.00
                  Electrical balance (eq)  =  -8.538e-13
 Percent error, 100*(Cat-|An|)/(Cat+|An|)  =  -0.00
                               Iterations  =  15
                                  Total H  = 1.112848e+02
                                  Total O  = 5.586942e+01

----------------------------Distribution of species----------------------------

                                               Log       Log       Log    mole V
   Species          Molality    Activity  Molality  Activity     Gamma   cm³/mol

   H+              2.437e-02   2.150e-02    -1.613    -1.668    -0.054      0.00
   OH-             5.490e-13   4.699e-13   -12.260   -12.328    -0.068     -3.96
   H2O             5.551e+01   9.980e-01     1.744    -0.001     0.000     18.07
H(0)          6.578e-15
   H2              3.289e-15   3.309e-15   -14.483   -14.480     0.003     14.99
O(0)          0.000e+00
   O2              0.000e+00   0.000e+00   -63.406   -63.404     0.002     30.40
P             9.080e-02
   H3PO4           6.643e-02   6.681e-02    -1.178    -1.175     0.002     47.41
   H2PO4-          2.437e-02   2.111e-02    -1.613    -1.676    -0.062     33.35
   HPO4-2          1.093e-07   6.097e-08    -6.961    -7.215    -0.253      7.18
   PO4-3           5.028e-18   1.279e-18   -17.299   -17.893    -0.595    -22.21

------------------------------Saturation indices-------------------------------

  Phase               SI** log IAP   log K(298 K,   1 atm)

  H2(g)           -11.38    -14.48   -3.10  H2
  H2O(g)           -1.50     -0.00    1.50  H2O
  O2(g)           -60.51    -63.40   -2.89  O2

**For a gas, SI = log10(fugacity). Fugacity = pressure * phi / 1 atm.
  For ideal gases, phi = 1.

Reaction step 14.

Using solution 1.	
Using temperature 1.	
Using pressure 1.	
Using reaction 1.	

Reaction 1.	

	  9.410e-02 moles of the following reaction have been added:

	                 Relative
	Reactant            moles

	H3PO4                1.00000

	                 Relative
	Element             moles
	H                    3.00000
	O                    4.00000
	P                    1.00000

-----------------------------Solution composition------------------------------

	Elements           Molality       Moles

	P                 9.410e-02   9.410e-02

----------------------------Description of solution----------------------------

                                       pH  =   1.659      Charge balance
                                       pe  =   3.857      Adjusted to redox equilibrium
      Specific Conductance (µS/cm,  25°C)  = 8984
                          Density (g/cm³)  =   1.00213
                               Volume (L)  =   1.00708
                        Viscosity (mPa s)  =   0.89267
                        Activity of water  =   0.998
                 Ionic strength (mol/kgw)  =   2.490e-02
                       Mass of water (kg)  =   1.000e+00
                 Total alkalinity (eq/kg)  =  -9.410e-02
                         Temperature (°C)  =  25.00
                  Electrical balance (eq)  =  -2.690e-11
 Percent error, 100*(Cat-|An|)/(Cat+|An|)  =  -0.00
                               Iterations  =  15
                                  Total H  = 1.112947e+02
                                  Total O  = 5.588262e+01

----------------------------Distribution of species----------------------------

                                               Log       Log       Log    mole V
   Species          Molality    Activity  Molality  Activity     Gamma   cm³/mol

   H+              2.490e-02   2.194e-02    -1.604    -1.659    -0.055      0.00
   OH-             5.385e-13   4.603e-13   -12.269   -12.337    -0.068     -3.96
   H2O             5.551e+01   9.980e-01     1.744    -0.001     0.000     18.07
H(0)          1.308e-14
   H2              6.541e-15   6.581e-15   -14.184   -14.182     0.003     14.99
O(0)          0.000e+00
   O2              0.000e+00   0.000e+00   -64.003   -64.001     0.002     30.40
P             9.410e-02
   H3PO4           6.920e-02   6.960e-02    -1.160    -1.157     0.002     47.41
   H2PO4-          2.490e-02   2.154e-02    -1.604    -1.667    -0.063     33.35
   HPO4-2          1.098e-07   6.095e-08    -6.959    -7.215    -0.256      7.19
   PO4-3           4.984e-18   1.252e-18   -17.302   -17.902    -0.600    -22.19

------------------------------Saturation indices-------------------------------

  Phase               SI** log IAP   log K(298 K,   1 atm)

  H2(g)           -11.08    -14.18   -3.10  H2
  H2O(g)           -1.50     -0.00    1.50  H2O
  O2(g)           -61.11    -64.00   -2.89  O2

**For a gas, SI = log10(fugacity). Fugacity = pressure * phi / 1 atm.
  For ideal gases, phi = 1.

Reaction step 15.

Using solution 1.	
Using temperature 1.	
Using pressure 1.	
Using reaction 1.	

Reaction 1.	

	  9.960e-02 moles of the following reaction have been added:

	                 Relative
	Reactant            moles

	H3PO4                1.00000

	                 Relative
	Element             moles
	H                    3.00000
	O                    4.00000
	P                    1.00000

-----------------------------Solution composition------------------------------

	Elements           Molality       Moles

	P                 9.960e-02   9.960e-02

----------------------------Description of solution----------------------------

                                       pH  =   1.644      Charge balance
                                       pe  =  16.139      Adjusted to redox equilibrium
      Specific Conductance (µS/cm,  25°C)  = 9287
                          Density (g/cm³)  =   1.00242
                               Volume (L)  =   1.00733
                        Viscosity (mPa s)  =   0.89275
                        Activity of water  =   0.998
                 Ionic strength (mol/kgw)  =   2.577e-02
                       Mass of water (kg)  =   1.000e+00
                 Total alkalinity (eq/kg)  =  -9.960e-02
                         Temperature (°C)  =  25.00
                  Electrical balance (eq)  =   5.977e-16
 Percent error, 100*(Cat-|An|)/(Cat+|An|)  =   0.00
                               Iterations  =  17
                                  Total H  = 1.113112e+02
                                  Total O  = 5.590462e+01

----------------------------Distribution of species----------------------------

                                               Log       Log       Log    mole V
   Species          Molality    Activity  Molality  Activity     Gamma   cm³/mol

   H+              2.577e-02   2.267e-02    -1.589    -1.644    -0.056      0.00
   OH-             5.223e-13   4.455e-13   -12.282   -12.351    -0.069     -3.96
   H2O             5.551e+01   9.979e-01     1.744    -0.001     0.000     18.07
H(0)          3.808e-39
   H2              1.904e-39   1.916e-39   -38.720   -38.718     0.003     14.99
O(0)          2.340e-15
   O2              1.170e-15   1.177e-15   -14.932   -14.929     0.003     30.40
P             9.960e-02
   H3PO4           7.383e-02   7.427e-02    -1.132    -1.129     0.003     47.41
   H2PO4-          2.577e-02   2.225e-02    -1.589    -1.653    -0.064     33.36
   HPO4-2          1.106e-07   6.092e-08    -6.956    -7.215    -0.259      7.20
   PO4-3           4.918e-18   1.211e-18   -17.308   -17.917    -0.608    -22.17

------------------------------Saturation indices-------------------------------

  Phase               SI** log IAP   log K(298 K,   1 atm)

  H2(g)           -35.62    -38.72   -3.10  H2
  H2O(g)           -1.50     -0.00    1.50  H2O
  O2(g)           -12.04    -14.93   -2.89  O2

**For a gas, SI = log10(fugacity). Fugacity = pressure * phi / 1 atm.
  For ideal gases, phi = 1.

Reaction step 16.

Using solution 1.	
Using temperature 1.	
Using pressure 1.	
Using reaction 1.	

Reaction 1.	

	  1.010e-01 moles of the following reaction have been added:

	                 Relative
	Reactant            moles

	H3PO4                1.00000

	                 Relative
	Element             moles
	H                    3.00000
	O                    4.00000
	P                    1.00000

-----------------------------Solution composition------------------------------

	Elements           Molality       Moles

	P                 1.010e-01   1.010e-01

----------------------------Description of solution----------------------------

                                       pH  =   1.641      Charge balance
                                       pe  =  16.222      Adjusted to redox equilibrium
      Specific Conductance (µS/cm,  25°C)  = 9363
                          Density (g/cm³)  =   1.00249
                               Volume (L)  =   1.00739
                        Viscosity (mPa s)  =   0.89277
                        Activity of water  =   0.998
                 Ionic strength (mol/kgw)  =   2.598e-02
                       Mass of water (kg)  =   1.000e+00
                 Total alkalinity (eq/kg)  =  -1.010e-01
                         Temperature (°C)  =  25.00
                  Electrical balance (eq)  =   1.350e-11
 Percent error, 100*(Cat-|An|)/(Cat+|An|)  =   0.00
                               Iterations  =  16
                                  Total H  = 1.113154e+02
                                  Total O  = 5.591022e+01

----------------------------Distribution of species----------------------------

                                               Log       Log       Log    mole V
   Species          Molality    Activity  Molality  Activity     Gamma   cm³/mol

   H+              2.598e-02   2.286e-02    -1.585    -1.641    -0.056      0.00
   OH-             5.184e-13   4.419e-13   -12.285   -12.355    -0.069     -3.96
   H2O             5.551e+01   9.978e-01     1.744    -0.001     0.000     18.07
H(0)          2.648e-39
   H2              1.324e-39   1.333e-39   -38.878   -38.875     0.003     14.99
O(0)          4.838e-15
   O2              2.419e-15   2.433e-15   -14.616   -14.614     0.003     30.40
P             1.010e-01
   H3PO4           7.502e-02   7.547e-02    -1.125    -1.122     0.003     47.41
   H2PO4-          2.598e-02   2.243e-02    -1.585    -1.649    -0.064     33.36
   HPO4-2          1.109e-07   6.092e-08    -6.955    -7.215    -0.260      7.20
   PO4-3           4.901e-18   1.202e-18   -17.310   -17.920    -0.611    -22.17

------------------------------Saturation indices-------------------------------

  Phase               SI** log IAP   log K(298 K,   1 atm)

  H2(g)           -35.78    -38.88   -3.10  H2
  H2O(g)           -1.50     -0.00    1.50  H2O
  O2(g)           -11.72    -14.61   -2.89  O2

**For a gas, SI = log10(fugacity). Fugacity = pressure * phi / 1 atm.
  For ideal gases, phi = 1.

Reaction step 17.

Using solution 1.	
Using temperature 1.	
Using pressure 1.	
Using reaction 1.	

Reaction 1.	

	  1.055e-01 moles of the following reaction have been added:

	                 Relative
	Reactant            moles

	H3PO4                1.00000

	                 Relative
	Element             moles
	H                    3.00000
	O                    4.00000
	P                    1.00000

-----------------------------Solution composition------------------------------

	Elements           Molality       Moles

	P                 1.055e-01   1.055e-01

----------------------------Description of solution----------------------------

                                       pH  =   1.630      Charge balance
                                       pe  =   3.929      Adjusted to redox equilibrium
      Specific Conductance (µS/cm,  25°C)  = 9604
                          Density (g/cm³)  =   1.00273
                               Volume (L)  =   1.00759
                        Viscosity (mPa s)  =   0.89284
                        Activity of water  =   0.998
                 Ionic strength (mol/kgw)  =   2.667e-02
                       Mass of water (kg)  =   1.000e+00
                 Total alkalinity (eq/kg)  =  -1.055e-01
                         Temperature (°C)  =  25.00
                  Electrical balance (eq)  =  -1.628e-17
 Percent error, 100*(Cat-|An|)/(Cat+|An|)  =  -0.00
                               Iterations  =  16
                                  Total H  = 1.113289e+02
                                  Total O  = 5.592822e+01

----------------------------Distribution of species----------------------------

                                               Log       Log       Log    mole V
   Species          Molality    Activity  Molality  Activity     Gamma   cm³/mol

   H+              2.667e-02   2.344e-02    -1.574    -1.630    -0.056      0.00
   OH-             5.064e-13   4.309e-13   -12.295   -12.366    -0.070     -3.96
   H2O             5.551e+01   9.978e-01     1.744    -0.001     0.000     18.07
H(0)          1.070e-14
   H2              5.348e-15   5.383e-15   -14.272   -14.269     0.003     14.99
O(0)          0.000e+00
   O2              0.000e+00   0.000e+00   -63.829   -63.827     0.003     30.40
P             1.055e-01
   H3PO4           7.883e-02   7.931e-02    -1.103    -1.101     0.003     47.41
   H2PO4-          2.667e-02   2.299e-02    -1.574    -1.639    -0.065     33.36
   HPO4-2          1.115e-07   6.090e-08    -6.953    -7.215    -0.263      7.21
   PO4-3           4.852e-18   1.171e-18   -17.314   -17.931    -0.617    -22.15

------------------------------Saturation indices-------------------------------

  Phase               SI** log IAP   log K(298 K,   1 atm)

  H2(g)           -11.17    -14.27   -3.10  H2
  H2O(g)           -1.50     -0.00    1.50  H2O
  O2(g)           -60.93    -63.83   -2.89  O2

**For a gas, SI = log10(fugacity). Fugacity = pressure * phi / 1 atm.
  For ideal gases, phi = 1.

Reaction step 18.

Using solution 1.	
Using temperature 1.	
Using pressure 1.	
Using reaction 1.	

Reaction 1.	

	  1.112e-01 moles of the following reaction have been added:

	                 Relative
	Reactant            moles

	H3PO4                1.00000

	                 Relative
	Element             moles
	H                    3.00000
	O                    4.00000
	P                    1.00000

-----------------------------Solution composition------------------------------

	Elements           Molality       Moles

	P                 1.112e-01   1.112e-01

----------------------------Description of solution----------------------------

                                       pH  =   1.617      Charge balance
                                       pe  =   4.252      Adjusted to redox equilibrium
      Specific Conductance (µS/cm,  25°C)  = 9902
                          Density (g/cm³)  =   1.00302
                               Volume (L)  =   1.00785
                        Viscosity (mPa s)  =   0.89292
                        Activity of water  =   0.998
                 Ionic strength (mol/kgw)  =   2.753e-02
                       Mass of water (kg)  =   1.000e+00
                 Total alkalinity (eq/kg)  =  -1.112e-01
                         Temperature (°C)  =  25.00
                  Electrical balance (eq)  =  -1.708e-16
 Percent error, 100*(Cat-|An|)/(Cat+|An|)  =  -0.00
                               Iterations  =  16
                                  Total H  = 1.113460e+02
                                  Total O  = 5.595102e+01

----------------------------Distribution of species----------------------------

                                               Log       Log       Log    mole V
   Species          Molality    Activity  Molality  Activity     Gamma   cm³/mol

   H+              2.753e-02   2.415e-02    -1.560    -1.617    -0.057      0.00
   OH-             4.924e-13   4.181e-13   -12.308   -12.379    -0.071     -3.95
   H2O             5.551e+01   9.976e-01     1.744    -0.001     0.000     18.07
H(0)          2.574e-15
   H2              1.287e-15   1.296e-15   -14.890   -14.888     0.003     14.99
O(0)          0.000e+00
[...]
                         Temperature (°C)  =  81.40
                  Electrical balance (eq)  =  -4.275e-11
 Percent error, 100*(Cat-|An|)/(Cat+|An|)  =  -0.00
                               Iterations  =  17
                                  Total H  = 1.124128e+02
                                  Total O  = 5.737342e+01

----------------------------Distribution of species----------------------------

                                               Log       Log       Log    mole V
   Species          Molality    Activity  Molality  Activity     Gamma   cm³/mol

   H+              4.889e-02   4.106e-02    -1.311    -1.387    -0.076      0.00
   OH-             8.341e-12   6.619e-12   -11.079   -11.179    -0.100     -4.37
   H2O             5.551e+01   9.912e-01     1.744    -0.004     0.000     18.56
H(0)          1.109e-14
   H2              5.547e-15   5.613e-15   -14.256   -14.251     0.005     17.66
O(0)          0.000e+00
   O2              0.000e+00   0.000e+00   -48.627   -48.622     0.005     33.23
P             4.668e-01
   H3PO4           4.179e-01   4.226e-01    -0.379    -0.374     0.005     49.10
   H2PO4-          4.889e-02   3.971e-02    -1.311    -1.401    -0.090     31.66
   HPO4-2          1.831e-07   7.833e-08    -6.737    -7.106    -0.369      3.78
   PO4-3           1.674e-17   2.218e-18   -16.776   -17.654    -0.878    -28.61

------------------------------Saturation indices-------------------------------

  Phase               SI** log IAP   log K(354 K,   1 atm)

  H2(g)           -11.14    -14.25   -3.11  H2
  H2O(g)           -0.31     -0.00    0.31  H2O
  O2(g)           -45.52    -48.62   -3.11  O2

**For a gas, SI = log10(fugacity). Fugacity = pressure * phi / 1 atm.
  For ideal gases, phi = 1.

Reaction step 3.

Using solution 1.	
Using temperature 1.	
Using pressure 1.	
Using reaction 1.	

Reaction 1.	

	  1.032e+00 moles of the following reaction have been added:

	                 Relative
	Reactant            moles

	H3PO4                1.00000

	                 Relative
	Element             moles
	H                    3.00000
	O                    4.00000
	P                    1.00000

-----------------------------Solution composition------------------------------

	Elements           Molality       Moles

	P                 1.031e+00   1.032e+00

----------------------------Description of solution----------------------------

                                       pH  =   1.203      Charge balance
                                       pe  =   4.115      Adjusted to redox equilibrium
      Specific Conductance (µS/cm,  81°C)  = 39424
                          Density (g/cm³)  =   1.02019
                               Volume (L)  =   1.07929
                        Viscosity (mPa s)  =   0.35293
                        Activity of water  =   0.981
                 Ionic strength (mol/kgw)  =   7.632e-02
                       Mass of water (kg)  =   1.000e+00
                 Total alkalinity (eq/kg)  =  -1.031e+00
                         Temperature (°C)  =  81.40
                  Electrical balance (eq)  =   1.042e-11
 Percent error, 100*(Cat-|An|)/(Cat+|An|)  =   0.00
                               Iterations  =  31
                                  Total H  = 1.141069e+02
                                  Total O  = 5.963222e+01

----------------------------Distribution of species----------------------------

                                               Log       Log       Log    mole V
   Species          Molality    Activity  Molality  Activity     Gamma   cm³/mol

   H+              7.632e-02   6.262e-02    -1.117    -1.203    -0.086      0.00
   OH-             5.655e-12   4.297e-12   -11.248   -11.367    -0.119     -4.25
   H2O             5.551e+01   9.812e-01     1.744    -0.008     0.000     18.56
H(0)          2.002e-14
   H2              1.001e-14   1.020e-14   -14.000   -13.992     0.008     17.66
O(0)          0.000e+00
   O2              0.000e+00   0.000e+00   -49.157   -49.150     0.008     33.23
P             1.031e+00
   H3PO4           9.552e-01   9.721e-01    -0.020    -0.012     0.008     49.10
   H2PO4-          7.632e-02   5.990e-02    -1.117    -1.223    -0.105     31.81
   HPO4-2          2.093e-07   7.748e-08    -6.679    -7.111    -0.432      4.14
   PO4-3           1.567e-17   1.439e-18   -16.805   -17.842    -1.037    -27.85

------------------------------Saturation indices-------------------------------

  Phase               SI** log IAP   log K(354 K,   1 atm)

  H2(g)           -10.88    -13.99   -3.11  H2
  H2O(g)           -0.32     -0.01    0.31  H2O
  O2(g)           -46.04    -49.15   -3.11  O2

**For a gas, SI = log10(fugacity). Fugacity = pressure * phi / 1 atm.
  For ideal gases, phi = 1.

Reaction step 4.

Using solution 1.	
Using temperature 1.	
Using pressure 1.	
Using reaction 1.	

Reaction 1.	

	  2.378e+00 moles of the following reaction have been added:

	                 Relative
	Reactant            moles

	H3PO4                1.00000

	                 Relative
	Element             moles
	H                    3.00000
	O                    4.00000
	P                    1.00000

-----------------------------Solution composition------------------------------

	Elements           Molality       Moles

	P                 2.378e+00   2.378e+00

----------------------------Description of solution----------------------------

                                       pH  =   1.011      Charge balance
                                       pe  =   4.417      Adjusted to redox equilibrium
      Specific Conductance (µS/cm,  81°C)  = 55069
                          Density (g/cm³)  =   1.07722
                               Volume (L)  =   1.14464
                        Viscosity (mPa s)  =   0.35569
                        Activity of water  =   0.958
                 Ionic strength (mol/kgw)  =   1.218e-01
                       Mass of water (kg)  =   1.000e+00
                 Total alkalinity (eq/kg)  =  -2.378e+00
                         Temperature (°C)  =  81.40
                  Electrical balance (eq)  =   2.371e-14
 Percent error, 100*(Cat-|An|)/(Cat+|An|)  =   0.00
                               Iterations  =  47
                                  Total H  = 1.181461e+02
                                  Total O  = 6.501782e+01

----------------------------Distribution of species----------------------------

                                               Log       Log       Log    mole V
   Species          Molality    Activity  Molality  Activity     Gamma   cm³/mol

   H+              1.218e-01   9.740e-02    -0.914    -1.011    -0.097      0.00
   OH-             3.734e-12   2.696e-12   -11.428   -11.569    -0.141     -4.08
   H2O             5.551e+01   9.575e-01     1.744    -0.019     0.000     18.56
H(0)          1.194e-14
   H2              5.969e-15   6.148e-15   -14.224   -14.211     0.013     17.66
O(0)          0.000e+00
   O2              0.000e+00   0.000e+00   -48.744   -48.731     0.012     33.23
P             2.378e+00
   H3PO4           2.256e+00   2.320e+00     0.353     0.366     0.012     49.10
   H2PO4-          1.218e-01   9.192e-02    -0.914    -1.037    -0.122     32.02
   HPO4-2          2.433e-07   7.643e-08    -6.614    -7.117    -0.503      4.62
   PO4-3           1.522e-17   9.126e-19   -16.817   -18.040    -1.222    -26.85

------------------------------Saturation indices-------------------------------

  Phase               SI** log IAP   log K(354 K,   1 atm)

  H2(g)           -11.10    -14.21   -3.11  H2
  H2O(g)           -0.33     -0.02    0.31  H2O
  O2(g)           -45.62    -48.73   -3.11  O2

**For a gas, SI = log10(fugacity). Fugacity = pressure * phi / 1 atm.
  For ideal gases, phi = 1.

Reaction step 5.

Using solution 1.	
Using temperature 1.	
Using pressure 1.	
Using reaction 1.	

Reaction 1.	

	  4.151e+00 moles of the following reaction have been added:

	                 Relative
	Reactant            moles

	H3PO4                1.00000

	                 Relative
	Element             moles
	H                    3.00000
	O                    4.00000
	P                    1.00000

-----------------------------Solution composition------------------------------

	Elements           Molality       Moles

	P                 4.150e+00   4.151e+00

----------------------------Description of solution----------------------------

                                       pH  =   0.883      Charge balance
                                       pe  =  13.127      Adjusted to redox equilibrium
      Specific Conductance (µS/cm,  81°C)  = 64204
                          Density (g/cm³)  =   1.14282
                               Volume (L)  =   1.23094
                        Viscosity (mPa s)  =   0.35837
                        Activity of water  =   0.927
                 Ionic strength (mol/kgw)  =   1.662e-01
                       Mass of water (kg)  =   1.000e+00
                 Total alkalinity (eq/kg)  =  -4.150e+00
                         Temperature (°C)  =  81.40
                  Electrical balance (eq)  =  -2.773e-13
 Percent error, 100*(Cat-|An|)/(Cat+|An|)  =  -0.00
                               Iterations  =  21
                                  Total H  = 1.234639e+02
                                  Total O  = 7.210822e+01

----------------------------Distribution of species----------------------------

                                               Log       Log       Log    mole V
   Species          Molality    Activity  Molality  Activity     Gamma   cm³/mol

   H+              1.662e-01   1.308e-01    -0.779    -0.883    -0.104      0.00
   OH-             2.793e-12   1.943e-12   -11.554   -11.712    -0.158     -3.93
   H2O             5.551e+01   9.266e-01     1.744    -0.033     0.000     18.56
H(0)          8.081e-32
   H2              4.040e-32   4.206e-32   -31.394   -31.376     0.017     17.66
O(0)          7.147e-15
   O2              3.574e-15   3.713e-15   -14.447   -14.430     0.017     33.23
P             4.150e+00
   H3PO4           3.984e+00   4.140e+00     0.600     0.617     0.017     49.10
   H2PO4-          1.662e-01   1.221e-01    -0.779    -0.913    -0.134     32.21
   HPO4-2          2.703e-07   7.564e-08    -6.568    -7.121    -0.553      5.00
   PO4-3           1.523e-17   6.727e-19   -16.817   -18.172    -1.355    -26.07

------------------------------Saturation indices-------------------------------

  Phase               SI** log IAP   log K(354 K,   1 atm)

  H2(g)           -28.26    -31.38   -3.11  H2
  H2O(g)           -0.34     -0.03    0.31  H2O
  O2(g)           -11.32    -14.43   -3.11  O2

**For a gas, SI = log10(fugacity). Fugacity = pressure * phi / 1 atm.
  For ideal gases, phi = 1.

Reaction step 6.

Using solution 1.	
Using temperature 1.	
Using pressure 1.	
Using reaction 1.	

Reaction 1.	

	  6.434e+00 moles of the following reaction have been added:

	                 Relative
	Reactant            moles

	H3PO4                1.00000

	                 Relative
	Element             moles
	H                    3.00000
	O                    4.00000
	P                    1.00000

-----------------------------Solution composition------------------------------

	Elements           Molality       Moles

	P                 6.434e+00   6.434e+00

----------------------------Description of solution----------------------------

                                       pH  =   0.782      Charge balance
                                       pe  =  13.171      Adjusted to redox equilibrium
      Specific Conductance (µS/cm,  81°C)  = 68210
                          Density (g/cm³)  =   1.21471
                               Volume (L)  =   1.34232
                        Viscosity (mPa s)  =   0.36115
                        Activity of water  =   0.887
                 Ionic strength (mol/kgw)  =   2.125e-01
                       Mass of water (kg)  =   1.000e+00
                 Total alkalinity (eq/kg)  =  -6.434e+00
                         Temperature (°C)  =  81.40
                  Electrical balance (eq)  =  -9.756e-14
 Percent error, 100*(Cat-|An|)/(Cat+|An|)  =  -0.00
                               Iterations  =  54
                                  Total H  = 1.303147e+02
                                  Total O  = 8.124262e+01

----------------------------Distribution of species----------------------------

                                               Log       Log       Log    mole V
   Species          Molality    Activity  Molality  Activity     Gamma   cm³/mol

   H+              2.125e-01   1.650e-01    -0.673    -0.782    -0.110      0.00
   OH-             2.185e-12   1.474e-12   -11.661   -11.832    -0.171     -3.79
   H2O             5.551e+01   8.870e-01     1.744    -0.052     0.000     18.56
H(0)          1.037e-31
   H2              5.186e-32   5.459e-32   -31.285   -31.263     0.022     17.66
O(0)          3.846e-15
   O2              1.923e-15   2.020e-15   -14.716   -14.695     0.021     33.23
P             6.434e+00
   H3PO4           6.222e+00   6.534e+00     0.794     0.815     0.021     49.10
   H2PO4-          2.125e-01   1.528e-01    -0.673    -0.816    -0.143     32.39
   HPO4-2          2.941e-07   7.498e-08    -6.531    -7.125    -0.594      5.35
   PO4-3           1.538e-17   5.284e-19   -16.813   -18.277    -1.464    -25.36

------------------------------Saturation indices-------------------------------

  Phase               SI** log IAP   log K(354 K,   1 atm)

  H2(g)           -28.15    -31.26   -3.11  H2
  H2O(g)           -0.36     -0.05    0.31  H2O
  O2(g)           -11.59    -14.69   -3.11  O2

**For a gas, SI = log10(fugacity). Fugacity = pressure * phi / 1 atm.
  For ideal gases, phi = 1.

Reaction step 7.

Using solution 1.	
Using temperature 1.	
Using pressure 1.	
Using reaction 1.	

Reaction 1.	

	  9.748e+00 moles of the following reaction have been added:

	                 Relative
	Reactant            moles

	H3PO4                1.00000

	                 Relative
	Element             moles
	H                    3.00000
	O                    4.00000
	P                    1.00000

-----------------------------Solution composition------------------------------

	Elements           Molality       Moles

	P                 9.748e+00   9.748e+00

----------------------------Description of solution----------------------------

                                       pH  =   0.686      Charge balance
                                       pe  =   4.615      Adjusted to redox equilibrium
      Specific Conductance (µS/cm,  81°C)  = 67701
                          Density (g/cm³)  =   1.29992
                               Volume (L)  =   1.50414
                        Viscosity (mPa s)  =   0.36448
                        Activity of water  =   0.830
                 Ionic strength (mol/kgw)  =   2.684e-01
                       Mass of water (kg)  =   1.000e+00
                 Total alkalinity (eq/kg)  =  -9.748e+00
                         Temperature (°C)  =  81.40
                  Electrical balance (eq)  =  -1.903e-10
 Percent error, 100*(Cat-|An|)/(Cat+|An|)  =  -0.00
                               Iterations  =  61
                                  Total H  = 1.402555e+02
                                  Total O  = 9.449702e+01

----------------------------Distribution of species----------------------------

                                               Log       Log       Log    mole V
   Species          Molality    Activity  Molality  Activity     Gamma   cm³/mol

   H+              2.684e-01   2.059e-01    -0.571    -0.686    -0.115      0.00
   OH-             1.688e-12   1.105e-12   -11.773   -11.957    -0.184     -3.64
   H2O             5.551e+01   8.297e-01     1.744    -0.081     0.000     18.56
H(0)          2.069e-14
   H2              1.034e-14   1.104e-14   -13.985   -13.957     0.028     17.66
O(0)          0.000e+00
   O2              0.000e+00   0.000e+00   -49.391   -49.364     0.027     33.23
P             9.748e+00
   H3PO4           9.479e+00   1.008e+01     0.977     1.004     0.027     49.10
   H2PO4-          2.684e-01   1.890e-01    -0.571    -0.724    -0.152     32.60
   HPO4-2          3.191e-07   7.432e-08    -6.496    -7.129    -0.633      5.73
   PO4-3           1.561e-17   4.197e-19   -16.806   -18.377    -1.571    -24.62

------------------------------Saturation indices-------------------------------

  Phase               SI** log IAP   log K(354 K,   1 atm)

  H2(g)           -10.84    -13.96   -3.11  H2
  H2O(g)           -0.39     -0.08    0.31  H2O
  O2(g)           -46.26    -49.36   -3.11  O2

**For a gas, SI = log10(fugacity). Fugacity = pressure * phi / 1 atm.
  For ideal gases, phi = 1.

Reaction step 8.

Using solution 1.	
Using temperature 1.	
Using pressure 1.	
Using reaction 1.	

Reaction 1.	

	  1.472e+01 moles of the following reaction have been added:

	                 Relative
	Reactant            moles

	H3PO4                1.00000

	                 Relative
	Element             moles
	H                    3.00000
	O                    4.00000
	P                    1.00000

-----------------------------Solution composition------------------------------

	Elements           Molality       Moles

	P                 1.472e+01   1.472e+01

----------------------------Description of solution----------------------------

                                       pH  =   0.590      Charge balance
                                       pe  =  13.915      Adjusted to redox equilibrium
      Specific Conductance (µS/cm,  81°C)  = 62323
                          Density (g/cm³)  =   1.39791
                               Volume (L)  =   1.74702
                        Viscosity (mPa s)  =   0.36866
                        Activity of water  =   0.744
                 Ionic strength (mol/kgw)  =   3.388e-01
                       Mass of water (kg)  =   1.000e+00
                 Total alkalinity (eq/kg)  =  -1.472e+01
                         Temperature (°C)  =  81.40
                  Electrical balance (eq)  =  -2.400e-15
 Percent error, 100*(Cat-|An|)/(Cat+|An|)  =  -0.00
                               Iterations  =  53
                                  Total H  = 1.551616e+02
                                  Total O  = 1.143718e+02

----------------------------Distribution of species----------------------------

                                               Log       Log       Log    mole V
   Species          Molality    Activity  Molality  Activity     Gamma   cm³/mol

   H+              3.388e-01   2.568e-01    -0.470    -0.590    -0.120      0.00
   OH-             1.252e-12   7.944e-13   -11.903   -12.100    -0.197     -3.46
   H2O             5.551e+01   7.441e-01     1.744    -0.128     0.000     18.56
H(0)          7.941e-33
   H2              3.970e-33   4.309e-33   -32.401   -32.366     0.036     17.66
O(0)          4.219e-13
   O2              2.110e-13   2.281e-13   -12.676   -12.642     0.034     33.23
P             1.472e+01
   H3PO4           1.438e+01   1.554e+01     1.158     1.192     0.034     49.10
   H2PO4-          3.388e-01   2.335e-01    -0.470    -0.632    -0.162     32.85
   HPO4-2          3.461e-07   7.364e-08    -6.461    -7.133    -0.672      6.15
   PO4-3           1.592e-17   3.334e-19   -16.798   -18.477    -1.679    -23.80

------------------------------Saturation indices-------------------------------

  Phase               SI** log IAP   log K(354 K,   1 atm)

  H2(g)           -29.25    -32.37   -3.11  H2
  H2O(g)           -0.44     -0.13    0.31  H2O
  O2(g)            -9.54    -12.64   -3.11  O2

**For a gas, SI = log10(fugacity). Fugacity = pressure * phi / 1 atm.
  For ideal gases, phi = 1.

------------------
End of simulation.
------------------

------------------------------------
Reading input data for simulation 8.
------------------------------------

