WARNING: Database file from DATABASE keyword is used; command line argument ignored.
   Input file: rho_MgNaCl
  Output file: rho_MgNaCl.out
Database file: ../database/Amm.dat

------------------
Reading data base.
------------------

	SOLUTION_MASTER_SPECIES
	SOLUTION_SPECIES
	PHASES
	GAS_BINARY_PARAMETERS
	EXCHANGE_MASTER_SPECIES
	EXCHANGE_SPECIES
	SURFACE_MASTER_SPECIES
	SURFACE_SPECIES
	MEAN_GAMMAS
	RATES
	END
------------------------------------
Reading input data for simulation 1.
------------------------------------

	DATABASE ../database/Amm.dat
	SELECTED_OUTPUT 101
	    file                 rho_MgNaCl_101.sel
	USER_PUNCH 101
	    headings Mu SC
	    start
	10 PUNCH STR_F$(MU, 20, 12)
	20 PUNCH STR_F$(SC, 20, 10)
	    end
	SOLUTION_SPECIES
	Na+ = Na+
		gamma	4.0	0.075
		 vm  1.403  -2.285  4.419  -2.726  -5.125e-5  4.0  0.162  47.67  -3.09e-3  0.725 # supcrt modified
	SOLUTION 1
	 pH 7 charge
	SELECTED_OUTPUT
	 file rho_MgNaCl.24.prn
	 reset false
	PRINT
	 selected_output true
	USER_GRAPH
	 -active false
	USER_PUNCH
	 10 data 0.859190, 0.744030, 0.679070, 0.578520, 0.472430, 0.376860, 0.310690, 0.195070, 0.104830, 1.282400, 1.206200, 1.052500, 0.885570, 0.764020, 0.618000, 0.460540, 0.353770, 0.165000, 
	 20 dim Mg(18)
	 22 restore 10
	 30 read Mg(1), Mg(2), Mg(3), Mg(4), Mg(5), Mg(6), Mg(7), Mg(8), Mg(9), Mg(10), Mg(11), Mg(12), Mg(13), Mg(14), Mg(15), Mg(16), Mg(17), Mg(18), 
	 40 data 0.276730, 0.576500, 0.831210, 1.106050, 1.423840, 1.715000, 1.976590, 2.321420, 2.649200, 0.415330, 0.849830, 1.282300, 1.827400, 2.310900, 2.808700, 3.316300, 3.821600, 4.438900, 
	 50 dim Na(18)
	 52 restore 40
	 60 read Na(1), Na(2), Na(3), Na(4), Na(5), Na(6), Na(7), Na(8), Na(9), Na(10), Na(11), Na(12), Na(13), Na(14), Na(15), Na(16), Na(17), Na(18), 
	 70 data 3.000000, 0.000000, 1.000000, 5.000000, 4.000000, 0.000000, 9.000000, 2.000000, 0.000000, 3.000000, 3.000000, 0.000000, 0.000000, 0.000000, 0.000000, 0.000000, 0.000000, 0.000000, 
	 80 dim Cl(18)
	 82 restore 70
	 90 read Cl(1), Cl(2), Cl(3), Cl(4), Cl(5), Cl(6), Cl(7), Cl(8), Cl(9), Cl(10), Cl(11), Cl(12), Cl(13), Cl(14), Cl(15), Cl(16), Cl(17), Cl(18), 
	 100 data 1070.739700, 1073.744700, 1078.299900, 1081.009000, 1084.835100, 1088.447900, 1092.869700, 1096.827400, 1101.791500, 1103.877100, 1113.223300, 1117.617700, 1124.500700, 1132.220700, 1138.712500, 1144.649900, 1153.391800, 1160.394400, 
	 110 dim rho_m(18)
	 112 restore 100
	 120 read rho_m(1), rho_m(2), rho_m(3), rho_m(4), rho_m(5), rho_m(6), rho_m(7), rho_m(8), rho_m(9), rho_m(10), rho_m(11), rho_m(12), rho_m(13), rho_m(14), rho_m(15), rho_m(16), rho_m(17), rho_m(18), 
	800 for i = 1 to 18
	810   punch 'SOLUTION '+ str$(i),  EOL$
	820   punch ' -temp 24.000000 ', EOL$
	822   punch ' -pressure 5.900000 ', EOL$
	830   punch ' Mg ', Mg(i) * 1e3,  EOL$
	831   punch ' Na ', Na(i) * 1e3,  EOL$
	832   punch ' Cl 100 charge ' + EOL$
	850   punch 'USER_GRAPH' + EOL$
	852   if i = 1 then punch '-headings 24.oC__6.bar' + EOL$
	854   punch '-active true' + EOL$
	860   punch '-initial_solutions true' + EOL$
	870   punch '10 plot_xy ', rho_m(i), ', rho * 1e3, line_width = 0, symbol = Square, symbol_size = 4, color = Red' + EOL$
	880   punch 'END' + EOL$
	890 next i
	END
-------------------------------------------
Beginning of initial solution calculations.
-------------------------------------------

Initial solution 1.	

WARNING: USER_PUNCH: Headings count does not match number of calls to PUNCH.

-----------------------------Solution composition------------------------------

	Elements           Molality       Moles

	Pure water     

----------------------------Description of solution----------------------------

                                       pH  =   6.997      Charge balance
                                       pe  =   4.000    
      Specific Conductance (µS/cm,  25°C)  = 0
                          Density (g/cm³)  =   0.99704
                               Volume (L)  =   1.00297
                        Viscosity (mPa s)  =   0.89002
                        Activity of water  =   1.000
                 Ionic strength (mol/kgw)  =   1.006e-07
                       Mass of water (kg)  =   1.000e+00
                 Total alkalinity (eq/kg)  =   3.040e-17
                         Temperature (°C)  =  25.00
                  Electrical balance (eq)  =  -3.040e-17
 Percent error, 100*(Cat-|An|)/(Cat+|An|)  =  -0.00
                               Iterations  =   2
                                  Total H  = 1.110124e+02
                                  Total O  = 5.550622e+01

----------------------------Distribution of species----------------------------

                                               Log       Log       Log    mole V
   Species          Molality    Activity  Molality  Activity     Gamma   cm³/mol

   OH-             1.006e-07   1.006e-07    -6.997    -6.997    -0.000     -4.14
   H+              1.006e-07   1.006e-07    -6.997    -6.997    -0.000      0.00
   H2O             5.551e+01   1.000e+00     1.744    -0.000     0.000     18.07
H(0)          1.433e-25
   H2              7.166e-26   7.166e-26   -25.145   -25.145     0.000     14.99
O(0)          0.000e+00
   O2              0.000e+00   0.000e+00   -42.073   -42.073     0.000     30.40

------------------------------Saturation indices-------------------------------

  Phase               SI** log IAP   log K(298 K,   1 atm)

  H2(g)           -22.05    -25.14   -3.10  H2
  H2O(g)           -1.50     -0.00    1.50  H2O
  O2(g)           -39.18    -42.07   -2.89  O2

**For a gas, SI = log10(fugacity). Fugacity = pressure * phi / 1 atm.
  For ideal gases, phi = 1.

------------------
End of simulation.
------------------

------------------------------------
Reading input data for simulation 2.
------------------------------------

	PRINT
	 selected_output false
	 echo_input false

	Reading data from rho_MgNaCl.24.prn ...
-------------------------------------------
Beginning of initial solution calculations.
-------------------------------------------

Initial solution 1.	

-----------------------------Solution composition------------------------------

	Elements           Molality       Moles

	Cl                1.995e+00   1.995e+00  Charge balance
	Mg                8.592e-01   8.592e-01
	Na                2.767e-01   2.767e-01

----------------------------Description of solution----------------------------

                                       pH  =   7.000    
                                       pe  =   4.000    
      Specific Conductance (µS/cm,  24°C)  = 111996
                          Density (g/cm³)  =   1.07117
                               Volume (L)  =   1.02504
                        Viscosity (mPa s)  =   1.28270
                        Activity of water  =   0.947
                 Ionic strength (mol/kgw)  =   2.854e+00
                       Mass of water (kg)  =   1.000e+00
                 Total alkalinity (eq/kg)  =   2.187e-05
                         Temperature (°C)  =  24.00
                           Pressure (atm)  =  5.90
                  Electrical balance (eq)  =   1.327e-14
 Percent error, 100*(Cat-|An|)/(Cat+|An|)  =   0.00
                               Iterations  =   6
                                  Total H  = 1.110125e+02
                                  Total O  = 5.550624e+01

----------------------------Distribution of species----------------------------

                                               Log       Log       Log    mole V
   Species          Molality    Activity  Molality  Activity     Gamma   cm³/mol

   OH-             1.746e-07   8.907e-08    -6.758    -7.050    -0.292      0.53
   H+              1.392e-07   1.000e-07    -6.856    -7.000    -0.144      0.00
   H2O             5.551e+01   9.468e-01     1.744    -0.024     0.000     18.06
Cl            1.995e+00
   Cl-             1.995e+00   1.156e+00     0.300     0.063    -0.237     19.48
   HCl             2.444e-09   4.008e-08    -8.612    -7.397     1.215     20.29
H(0)          7.151e-26
   H2              3.576e-26   7.129e-26   -25.447   -25.147     0.300     14.92
Mg            8.592e-01
   Mg+2            8.592e-01   4.526e-01    -0.066    -0.344    -0.278    -19.13
   MgOH+           2.184e-05   1.421e-05    -4.661    -4.847    -0.187     (0)  
Na            2.767e-01
   Na+             2.767e-01   2.449e-01    -0.558    -0.611    -0.053      0.40
O(0)          0.000e+00
   O2              0.000e+00   0.000e+00   -42.737   -42.451     0.285     30.31

------------------------------Saturation indices-------------------------------

  Phase               SI** log IAP   log K(297 K,   6 atm)

  H2(g)           -22.05    -25.15   -3.10  H2
  H2O(g)           -1.55     -0.02    1.53  H2O
  Halite           -2.12     -0.55    1.57  NaCl
  O2(g)           -39.56    -42.45   -2.89  O2

**For a gas, SI = log10(fugacity). Fugacity = pressure * phi / 1 atm.
  For ideal gases, phi = 1.

------------------
End of simulation.
------------------

------------------------------------
Reading input data for simulation 3.
------------------------------------

-------------------------------------------
Beginning of initial solution calculations.
-------------------------------------------

Initial solution 2.	

-----------------------------Solution composition------------------------------

	Elements           Molality       Moles

	Cl                2.065e+00   2.065e+00  Charge balance
	Mg                7.440e-01   7.440e-01
	Na                5.765e-01   5.765e-01

----------------------------Description of solution----------------------------

                                       pH  =   7.000    
                                       pe  =   4.000    
      Specific Conductance (µS/cm,  24°C)  = 113649
                          Density (g/cm³)  =   1.07376
                               Volume (L)  =   1.02866
                        Viscosity (mPa s)  =   1.23395
                        Activity of water  =   0.942
                 Ionic strength (mol/kgw)  =   2.809e+00
                       Mass of water (kg)  =   1.000e+00
                 Total alkalinity (eq/kg)  =   1.852e-05
                         Temperature (°C)  =  24.00
                           Pressure (atm)  =  5.90
                  Electrical balance (eq)  =   1.143e-14
 Percent error, 100*(Cat-|An|)/(Cat+|An|)  =   0.00
                               Iterations  =   6
                                  Total H  = 1.110125e+02
                                  Total O  = 5.550624e+01

----------------------------Distribution of species----------------------------

                                               Log       Log       Log    mole V
   Species          Molality    Activity  Molality  Activity     Gamma   cm³/mol

   OH-             1.735e-07   8.867e-08    -6.761    -7.052    -0.292      0.47
   H+              1.391e-07   1.000e-07    -6.857    -7.000    -0.143      0.00
   H2O             5.551e+01   9.425e-01     1.744    -0.026     0.000     18.06
Cl            2.065e+00
   Cl-             2.065e+00   1.197e+00     0.315     0.078    -0.237     19.47
   HCl             2.645e-09   4.147e-08    -8.578    -7.382     1.195     20.29
H(0)          7.231e-26
   H2              3.615e-26   7.129e-26   -25.442   -25.147     0.295     14.92
Mg            7.440e-01
   Mg+2            7.440e-01   3.853e-01    -0.128    -0.414    -0.286    -19.15
   MgOH+           1.849e-05   1.204e-05    -4.733    -4.919    -0.186     (0)  
Na            5.765e-01
   Na+             5.765e-01   5.069e-01    -0.239    -0.295    -0.056      0.38
O(0)          0.000e+00
   O2              0.000e+00   0.000e+00   -42.736   -42.455     0.281     30.31

------------------------------Saturation indices-------------------------------

  Phase               SI** log IAP   log K(297 K,   6 atm)

  H2(g)           -22.05    -25.15   -3.10  H2
  H2O(g)           -1.55     -0.03    1.53  H2O
  Halite           -1.79     -0.22    1.57  NaCl
  O2(g)           -39.57    -42.46   -2.89  O2

**For a gas, SI = log10(fugacity). Fugacity = pressure * phi / 1 atm.
  For ideal gases, phi = 1.

------------------
End of simulation.
------------------

------------------------------------
Reading input data for simulation 4.
------------------------------------

-------------------------------------------
Beginning of initial solution calculations.
-------------------------------------------

Initial solution 3.	

-----------------------------Solution composition------------------------------

	Elements           Molality       Moles

	Cl                2.189e+00   2.189e+00  Charge balance
	Mg                6.791e-01   6.791e-01
	Na                8.312e-01   8.312e-01

----------------------------Description of solution----------------------------

                                       pH  =   7.000    
                                       pe  =   4.000    
      Specific Conductance (µS/cm,  24°C)  = 117696
                          Density (g/cm³)  =   1.07819
                               Volume (L)  =   1.03250
                        Viscosity (mPa s)  =   1.20735
                        Activity of water  =   0.937
                 Ionic strength (mol/kgw)  =   2.868e+00
                       Mass of water (kg)  =   1.000e+00
                 Total alkalinity (eq/kg)  =   1.721e-05
                         Temperature (°C)  =  24.00
                           Pressure (atm)  =  5.90
                  Electrical balance (eq)  =  -9.575e-14
 Percent error, 100*(Cat-|An|)/(Cat+|An|)  =  -0.00
                               Iterations  =   6
                                  Total H  = 1.110125e+02
                                  Total O  = 5.550623e+01

----------------------------Distribution of species----------------------------

                                               Log       Log       Log    mole V
   Species          Molality    Activity  Molality  Activity     Gamma   cm³/mol

   OH-             1.729e-07   8.816e-08    -6.762    -7.055    -0.293      0.55
   H+              1.392e-07   1.000e-07    -6.856    -7.000    -0.144      0.00
   H2O             5.551e+01   9.371e-01     1.744    -0.028     0.000     18.06
Cl            2.189e+00
   Cl-             2.189e+00   1.269e+00     0.340     0.103    -0.237     19.49
   HCl             2.645e-09   4.398e-08    -8.578    -7.357     1.221     20.29
H(0)          7.127e-26
   H2              3.563e-26   7.129e-26   -25.448   -25.147     0.301     14.92
Mg            6.791e-01
   Mg+2            6.791e-01   3.596e-01    -0.168    -0.444    -0.276    -19.13
   MgOH+           1.718e-05   1.117e-05    -4.765    -4.952    -0.187     (0)  
Na            8.312e-01
   Na+             8.312e-01   7.370e-01    -0.080    -0.133    -0.052      0.41
O(0)          0.000e+00
   O2              0.000e+00   0.000e+00   -42.747   -42.460     0.287     30.31

------------------------------Saturation indices-------------------------------

  Phase               SI** log IAP   log K(297 K,   6 atm)

  H2(g)           -22.05    -25.15   -3.10  H2
  H2O(g)           -1.56     -0.03    1.53  H2O
  Halite           -1.60     -0.03    1.57  NaCl
  O2(g)           -39.57    -42.46   -2.89  O2

**For a gas, SI = log10(fugacity). Fugacity = pressure * phi / 1 atm.
  For ideal gases, phi = 1.

------------------
End of simulation.
------------------

------------------------------------
Reading input data for simulation 5.
------------------------------------

-------------------------------------------
Beginning of initial solution calculations.
-------------------------------------------

Initial solution 4.	

-----------------------------Solution composition------------------------------

	Elements           Molality       Moles

	Cl                2.263e+00   2.263e+00  Charge balance
	Mg                5.785e-01   5.785e-01
	Na                1.106e+00   1.106e+00

----------------------------Description of solution----------------------------

                                       pH  =   7.000    
                                       pe  =   4.000    
      Specific Conductance (µS/cm,  24°C)  = 119727
                          Density (g/cm³)  =   1.08087
                               Volume (L)  =   1.03594
                        Viscosity (mPa s)  =   1.16550
                        Activity of water  =   0.933
                 Ionic strength (mol/kgw)  =   2.842e+00
                       Mass of water (kg)  =   1.000e+00
                 Total alkalinity (eq/kg)  =   1.445e-05
                         Temperature (°C)  =  24.00
                           Pressure (atm)  =  5.90
                  Electrical balance (eq)  =  -7.252e-13
 Percent error, 100*(Cat-|An|)/(Cat+|An|)  =  -0.00
                               Iterations  =   6
                                  Total H  = 1.110124e+02
                                  Total O  = 5.550623e+01

----------------------------Distribution of species----------------------------

                                               Log       Log       Log    mole V
   Species          Molality    Activity  Molality  Activity     Gamma   cm³/mol

   OH-             1.720e-07   8.777e-08    -6.765    -7.057    -0.292      0.51
   H+              1.391e-07   1.000e-07    -6.857    -7.000    -0.143      0.00
   H2O             5.551e+01   9.329e-01     1.744    -0.030     0.000     18.06
Cl            2.263e+00
   Cl-             2.263e+00   1.312e+00     0.355     0.118    -0.237     19.48
   HCl             2.807e-09   4.546e-08    -8.552    -7.342     1.209     20.29
H(0)          7.173e-26
   H2              3.587e-26   7.129e-26   -25.445   -25.147     0.298     14.92
Mg            5.785e-01
   Mg+2            5.785e-01   3.033e-01    -0.238    -0.518    -0.280    -19.14
   MgOH+           1.442e-05   9.382e-06    -4.841    -5.028    -0.187     (0)  
Na            1.106e+00
   Na+             1.106e+00   9.770e-01     0.044    -0.010    -0.054      0.40
O(0)          0.000e+00
   O2              0.000e+00   0.000e+00   -42.748   -42.464     0.284     30.31

------------------------------Saturation indices-------------------------------

  Phase               SI** log IAP   log K(297 K,   6 atm)

  H2(g)           -22.05    -25.15   -3.10  H2
  H2O(g)           -1.56     -0.03    1.53  H2O
  Halite           -1.46      0.11    1.57  NaCl
  O2(g)           -39.58    -42.46   -2.89  O2

**For a gas, SI = log10(fugacity). Fugacity = pressure * phi / 1 atm.
  For ideal gases, phi = 1.

------------------
End of simulation.
------------------

------------------------------------
Reading input data for simulation 6.
------------------------------------

-------------------------------------------
Beginning of initial solution calculations.
-------------------------------------------

Initial solution 5.	

-----------------------------Solution composition------------------------------

	Elements           Molality       Moles

	Cl                2.369e+00   2.369e+00  Charge balance
	Mg                4.724e-01   4.724e-01
	Na                1.424e+00   1.424e+00

----------------------------Description of solution----------------------------

                                       pH  =   7.000    
                                       pe  =   4.000    
      Specific Conductance (µS/cm,  24°C)  = 122986
                          Density (g/cm³)  =   1.08464
                               Volume (L)  =   1.04015
                        Viscosity (mPa s)  =   1.12181
                        Activity of water  =   0.927
                 Ionic strength (mol/kgw)  =   2.841e+00
                       Mass of water (kg)  =   1.000e+00
                 Total alkalinity (eq/kg)  =   1.173e-05
                         Temperature (°C)  =  24.00
                           Pressure (atm)  =  5.90
                  Electrical balance (eq)  =  -6.841e-12
 Percent error, 100*(Cat-|An|)/(Cat+|An|)  =  -0.00
                               Iterations  =   6
                                  Total H  = 1.110124e+02
                                  Total O  = 5.550623e+01

----------------------------Distribution of species----------------------------

                                               Log       Log       Log    mole V
   Species          Molality    Activity  Molality  Activity     Gamma   cm³/mol

   OH-             1.710e-07   8.726e-08    -6.767    -7.059    -0.292      0.51
   H+              1.391e-07   1.000e-07    -6.857    -7.000    -0.143      0.00
   H2O             5.551e+01   9.275e-01     1.744    -0.033     0.000     18.06
Cl            2.369e+00
   Cl-             2.369e+00   1.373e+00     0.375     0.138    -0.237     19.48
   HCl             2.940e-09   4.758e-08    -8.532    -7.323     1.209     20.29
H(0)          7.174e-26
   H2              3.587e-26   7.129e-26   -25.445   -25.147     0.298     14.92
Mg            4.724e-01
   Mg+2            4.724e-01   2.476e-01    -0.326    -0.606    -0.280    -19.14
   MgOH+           1.170e-05   7.616e-06    -4.932    -5.118    -0.187     (0)  
Na            1.424e+00
   Na+             1.424e+00   1.258e+00     0.153     0.100    -0.054      0.40
O(0)          0.000e+00
   O2              0.000e+00   0.000e+00   -42.753   -42.469     0.284     30.31

------------------------------Saturation indices-------------------------------

  Phase               SI** log IAP   log K(297 K,   6 atm)

  H2(g)           -22.05    -25.15   -3.10  H2
  H2O(g)           -1.56     -0.03    1.53  H2O
  Halite           -1.33      0.24    1.57  NaCl
  O2(g)           -39.58    -42.47   -2.89  O2

**For a gas, SI = log10(fugacity). Fugacity = pressure * phi / 1 atm.
  For ideal gases, phi = 1.

------------------
End of simulation.
------------------

------------------------------------
Reading input data for simulation 7.
------------------------------------

-------------------------------------------
Beginning of initial solution calculations.
-------------------------------------------

Initial solution 6.	

-----------------------------Solution composition------------------------------

	Elements           Molality       Moles

	Cl                2.469e+00   2.469e+00  Charge balance
	Mg                3.769e-01   3.769e-01
	Na                1.715e+00   1.715e+00

----------------------------Description of solution----------------------------

                                       pH  =   7.000    
                                       pe  =   4.000    
      Specific Conductance (µS/cm,  24°C)  = 126217
                          Density (g/cm³)  =   1.08817
                               Volume (L)  =   1.04405
                        Viscosity (mPa s)  =   1.08265
                        Activity of water  =   0.922
                 Ionic strength (mol/kgw)  =   2.846e+00
                       Mass of water (kg)  =   1.000e+00
                 Total alkalinity (eq/kg)  =   9.330e-06
                         Temperature (°C)  =  24.00
                           Pressure (atm)  =  5.90
                  Electrical balance (eq)  =  -4.242e-11
 Percent error, 100*(Cat-|An|)/(Cat+|An|)  =  -0.00
                               Iterations  =   6
                                  Total H  = 1.110124e+02
                                  Total O  = 5.550623e+01

----------------------------Distribution of species----------------------------

                                               Log       Log       Log    mole V
   Species          Molality    Activity  Molality  Activity     Gamma   cm³/mol

   OH-             1.701e-07   8.679e-08    -6.769    -7.062    -0.292      0.52
   H+              1.391e-07   1.000e-07    -6.857    -7.000    -0.143      0.00
   H2O             5.551e+01   9.225e-01     1.744    -0.035     0.000     18.06
Cl            2.469e+00
   Cl-             2.469e+00   1.431e+00     0.392     0.156    -0.237     19.48
   HCl             3.050e-09   4.959e-08    -8.516    -7.305     1.211     20.29
H(0)          7.166e-26
   H2              3.583e-26   7.129e-26   -25.446   -25.147     0.299     14.92
Mg            3.769e-01
   Mg+2            3.769e-01   1.979e-01    -0.424    -0.704    -0.280    -19.14
   MgOH+           9.302e-06   6.052e-06    -5.031    -5.218    -0.187     (0)  
Na            1.715e+00
   Na+             1.715e+00   1.516e+00     0.234     0.181    -0.054      0.40
O(0)          0.000e+00
   O2              0.000e+00   0.000e+00   -42.758   -42.474     0.285     30.31

------------------------------Saturation indices-------------------------------

  Phase               SI** log IAP   log K(297 K,   6 atm)

  H2(g)           -22.05    -25.15   -3.10  H2
  H2O(g)           -1.56     -0.04    1.53  H2O
  Halite           -1.23      0.34    1.57  NaCl
  O2(g)           -39.59    -42.47   -2.89  O2

**For a gas, SI = log10(fugacity). Fugacity = pressure * phi / 1 atm.
  For ideal gases, phi = 1.

------------------
End of simulation.
------------------

------------------------------------
Reading input data for simulation 8.
------------------------------------

-------------------------------------------
Beginning of initial solution calculations.
-------------------------------------------

Initial solution 7.	

-----------------------------Solution composition------------------------------

	Elements           Molality       Moles

	Cl                2.598e+00   2.598e+00  Charge balance
	Mg                3.107e-01   3.107e-01
	Na                1.977e+00   1.977e+00

----------------------------Description of solution----------------------------

                                       pH  =   7.000    
                                       pe  =   4.000    
      Specific Conductance (µS/cm,  24°C)  = 130883
                          Density (g/cm³)  =   1.09262
                               Volume (L)  =   1.04804
                        Viscosity (mPa s)  =   1.05591
                        Activity of water  =   0.917
                 Ionic strength (mol/kgw)  =   2.909e+00
                       Mass of water (kg)  =   1.000e+00
                 Total alkalinity (eq/kg)  =   7.842e-06
                         Temperature (°C)  =  24.00
                           Pressure (atm)  =  5.90
                  Electrical balance (eq)  =  -3.043e-10
 Percent error, 100*(Cat-|An|)/(Cat+|An|)  =  -0.00
                               Iterations  =   6
                                  Total H  = 1.110124e+02
                                  Total O  = 5.550622e+01

----------------------------Distribution of species----------------------------

                                               Log       Log       Log    mole V
   Species          Molality    Activity  Molality  Activity     Gamma   cm³/mol

   OH-             1.695e-07   8.626e-08    -6.771    -7.064    -0.293      0.61
   H+              1.392e-07   1.000e-07    -6.856    -7.000    -0.144      0.00
   H2O             5.551e+01   9.170e-01     1.744    -0.038     0.000     18.06
Cl            2.598e+00
   Cl-             2.598e+00   1.506e+00     0.415     0.178    -0.237     19.50
   HCl             3.018e-09   5.219e-08    -8.520    -7.282     1.238     20.29
H(0)          7.058e-26
   H2              3.529e-26   7.129e-26   -25.452   -25.147     0.305     14.92
Mg            3.107e-01
   Mg+2            3.107e-01   1.671e-01    -0.508    -0.777    -0.269    -19.11
   MgOH+           7.814e-06   5.079e-06    -5.107    -5.294    -0.187     (0)  
Na            1.977e+00
   Na+             1.977e+00   1.762e+00     0.296     0.246    -0.050      0.42
O(0)          0.000e+00
   O2              0.000e+00   0.000e+00   -42.770   -42.479     0.291     30.31

------------------------------Saturation indices-------------------------------

  Phase               SI** log IAP   log K(297 K,   6 atm)

  H2(g)           -22.05    -25.15   -3.10  H2
  H2O(g)           -1.56     -0.04    1.53  H2O
  Halite           -1.15      0.42    1.57  NaCl
  O2(g)           -39.59    -42.48   -2.89  O2

**For a gas, SI = log10(fugacity). Fugacity = pressure * phi / 1 atm.
  For ideal gases, phi = 1.

------------------
End of simulation.
------------------

------------------------------------
Reading input data for simulation 9.
------------------------------------

-------------------------------------------
Beginning of initial solution calculations.
-------------------------------------------

Initial solution 8.	

-----------------------------Solution composition------------------------------

	Elements           Molality       Moles

	Cl                2.712e+00   2.712e+00  Charge balance
	Mg                1.951e-01   1.951e-01
	Na                2.321e+00   2.321e+00

----------------------------Description of solution----------------------------

                                       pH  =   7.000    
                                       pe  =   4.000    
      Specific Conductance (µS/cm,  24°C)  = 134839
                          Density (g/cm³)  =   1.09656
                               Volume (L)  =   1.05260
                        Viscosity (mPa s)  =   1.00863
                        Activity of water  =   0.911
                 Ionic strength (mol/kgw)  =   2.907e+00
                       Mass of water (kg)  =   1.000e+00
                 Total alkalinity (eq/kg)  =   4.897e-06
                         Temperature (°C)  =  24.00
                           Pressure (atm)  =  5.90
                  Electrical balance (eq)  =  -1.491e-09
 Percent error, 100*(Cat-|An|)/(Cat+|An|)  =  -0.00
                               Iterations  =   6
                                  Total H  = 1.110124e+02
                                  Total O  = 5.550622e+01

----------------------------Distribution of species----------------------------

                                               Log       Log       Log    mole V
   Species          Molality    Activity  Molality  Activity     Gamma   cm³/mol

   OH-             1.684e-07   8.572e-08    -6.774    -7.067    -0.293      0.60
   H+              1.392e-07   1.000e-07    -6.856    -7.000    -0.144      0.00
   H2O             5.551e+01   9.111e-01     1.744    -0.040     0.000     18.06
Cl            2.712e+00
   Cl-             2.712e+00   1.572e+00     0.433     0.196    -0.237     19.50
   HCl             3.156e-09   5.447e-08    -8.501    -7.264     1.237     20.29
H(0)          7.061e-26
   H2              3.531e-26   7.129e-26   -25.452   -25.147     0.305     14.92
Mg            1.951e-01
   Mg+2            1.951e-01   1.048e-01    -0.710    -0.980    -0.270    -19.11
   MgOH+           4.871e-06   3.166e-06    -5.312    -5.499    -0.187     (0)  
Na            2.321e+00
   Na+             2.321e+00   2.069e+00     0.366     0.316    -0.050      0.42
O(0)          0.000e+00
   O2              0.000e+00   0.000e+00   -42.775   -42.484     0.291     30.31

------------------------------Saturation indices-------------------------------

  Phase               SI** log IAP   log K(297 K,   6 atm)

  H2(g)           -22.05    -25.15   -3.10  H2
  H2O(g)           -1.57     -0.04    1.53  H2O
  Halite           -1.06      0.51    1.57  NaCl
  O2(g)           -39.60    -42.48   -2.89  O2

**For a gas, SI = log10(fugacity). Fugacity = pressure * phi / 1 atm.
  For ideal gases, phi = 1.

------------------
End of simulation.
------------------

-------------------------------------
Reading input data for simulation 10.
-------------------------------------

-------------------------------------------
Beginning of initial solution calculations.
-------------------------------------------

Initial solution 9.	

-----------------------------Solution composition------------------------------

	Elements           Molality       Moles

	Cl                2.859e+00   2.859e+00  Charge balance
	Mg                1.048e-01   1.048e-01
	Na                2.649e+00   2.649e+00

----------------------------Description of solution----------------------------

                                       pH  =   7.000    
                                       pe  =   4.000    
      Specific Conductance (µS/cm,  24°C)  = 140494
                          Density (g/cm³)  =   1.10154
                               Volume (L)  =   1.05743
                        Viscosity (mPa s)  =   0.97199
                        Activity of water  =   0.905
                 Ionic strength (mol/kgw)  =   2.964e+00
                       Mass of water (kg)  =   1.000e+00
                 Total alkalinity (eq/kg)  =   2.683e-06
                         Temperature (°C)  =  24.00
                           Pressure (atm)  =  5.90
                  Electrical balance (eq)  =  -8.580e-09
 Percent error, 100*(Cat-|An|)/(Cat+|An|)  =  -0.00
                               Iterations  =   6
                                  Total H  = 1.110124e+02
                                  Total O  = 5.550622e+01

----------------------------Distribution of species----------------------------

                                               Log       Log       Log    mole V
   Species          Molality    Activity  Molality  Activity     Gamma   cm³/mol

   OH-             1.676e-07   8.510e-08    -6.776    -7.070    -0.294      0.68
   H+              1.393e-07   1.000e-07    -6.856    -7.000    -0.144      0.00
   H2O             5.551e+01   9.046e-01     1.744    -0.044     0.000     18.06
Cl            2.859e+00
   Cl-             2.859e+00   1.657e+00     0.456     0.219    -0.237     19.51
   HCl             3.147e-09   5.744e-08    -8.502    -7.241     1.261     20.29
H(0)          6.964e-26
   H2              3.482e-26   7.129e-26   -25.458   -25.147     0.311     14.92
Mg            1.048e-01
   Mg+2            1.048e-01   5.756e-02    -0.980    -1.240    -0.260    -19.08
   MgOH+           2.658e-06   1.726e-06    -5.575    -5.763    -0.187     (0)  
Na            2.649e+00
   Na+             2.649e+00   2.380e+00     0.423     0.377    -0.046      0.44
O(0)          0.000e+00
   O2              0.000e+00   0.000e+00   -42.787   -42.491     0.296     30.31

------------------------------Saturation indices-------------------------------

  Phase               SI** log IAP   log K(297 K,   6 atm)

  H2(g)           -22.05    -25.15   -3.10  H2
  H2O(g)           -1.57     -0.04    1.53  H2O
  Halite           -0.97      0.60    1.57  NaCl
  O2(g)           -39.60    -42.49   -2.89  O2

**For a gas, SI = log10(fugacity). Fugacity = pressure * phi / 1 atm.
  For ideal gases, phi = 1.

------------------
End of simulation.
------------------

-------------------------------------
Reading input data for simulation 11.
-------------------------------------

-------------------------------------------
Beginning of initial solution calculations.
-------------------------------------------

Initial solution 10.	

-----------------------------Solution composition------------------------------

	Elements           Molality       Moles

	Cl                2.980e+00   2.980e+00  Charge balance
	Mg                1.282e+00   1.282e+00
	Na                4.153e-01   4.153e-01

----------------------------Description of solution----------------------------

                                       pH  =   7.000    
                                       pe  =   4.000    
      Specific Conductance (µS/cm,  24°C)  = 143002
                          Density (g/cm³)  =   1.10431
                               Volume (L)  =   1.03810
                        Viscosity (mPa s)  =   1.48843
                        Activity of water  =   0.920
                 Ionic strength (mol/kgw)  =   4.262e+00
                       Mass of water (kg)  =   1.000e+00
                 Total alkalinity (eq/kg)  =   5.633e-05
                         Temperature (°C)  =  24.00
                           Pressure (atm)  =  5.90
                  Electrical balance (eq)  =  -1.163e-08
 Percent error, 100*(Cat-|An|)/(Cat+|An|)  =  -0.00
                               Iterations  =   6
                                  Total H  = 1.110125e+02
                                  Total O  = 5.550627e+01

----------------------------Distribution of species----------------------------

                                               Log       Log       Log    mole V
   Species          Molality    Activity  Molality  Activity     Gamma   cm³/mol

   OH-             1.774e-07   8.657e-08    -6.751    -7.063    -0.312      2.42
   H+              1.406e-07   1.000e-07    -6.852    -7.000    -0.148      0.00
   H2O             5.551e+01   9.205e-01     1.744    -0.036     0.000     18.06
Cl            2.980e+00
   Cl-             2.980e+00   1.750e+00     0.474     0.243    -0.231     19.78
   HCl             9.306e-10   6.065e-08    -9.031    -7.217     1.814     20.29
H(0)          5.088e-26
   H2              2.544e-26   7.129e-26   -25.595   -25.147     0.448     14.92
Mg            1.282e+00
   Mg+2            1.282e+00   1.179e+00     0.108     0.071    -0.037    -18.48
   MgOH+           5.629e-05   3.598e-05    -4.250    -4.444    -0.194     (0)  
Na            4.153e-01
   Na+             4.153e-01   4.518e-01    -0.382    -0.345     0.037      0.89
O(0)          0.000e+00
   O2              0.000e+00   0.000e+00   -42.902   -42.476     0.426     30.31

------------------------------Saturation indices-------------------------------

  Phase               SI** log IAP   log K(297 K,   6 atm)

  H2(g)           -22.05    -25.15   -3.10  H2
  H2O(g)           -1.56     -0.04    1.53  H2O
  Halite           -1.67     -0.10    1.57  NaCl
  O2(g)           -39.59    -42.48   -2.89  O2

**For a gas, SI = log10(fugacity). Fugacity = pressure * phi / 1 atm.
  For ideal gases, phi = 1.

------------------
End of simulation.
------------------

-------------------------------------
Reading input data for simulation 12.
-------------------------------------

-------------------------------------------
Beginning of initial solution calculations.
-------------------------------------------

Initial solution 11.	

-----------------------------Solution composition------------------------------

	Elements           Molality       Moles

	Cl                3.262e+00   3.262e+00  Charge balance
	Mg                1.206e+00   1.206e+00
	Na                8.498e-01   8.498e-01

----------------------------Description of solution----------------------------

                                       pH  =   7.000    
                                       pe  =   4.000    
      Specific Conductance (µS/cm,  24°C)  = 151268
                          Density (g/cm³)  =   1.11355
                               Volume (L)  =   1.04577
                        Viscosity (mPa s)  =   1.45756
                        Activity of water  =   0.910
                 Ionic strength (mol/kgw)  =   4.468e+00
                       Mass of water (kg)  =   1.000e+00
                 Total alkalinity (eq/kg)  =   5.709e-05
                         Temperature (°C)  =  24.00
                           Pressure (atm)  =  5.90
                  Electrical balance (eq)  =  -6.667e-15
 Percent error, 100*(Cat-|An|)/(Cat+|An|)  =  -0.00
                               Iterations  =   7
                                  Total H  = 1.110125e+02
                                  Total O  = 5.550627e+01

----------------------------Distribution of species----------------------------

                                               Log       Log       Log    mole V
   Species          Molality    Activity  Molality  Activity     Gamma   cm³/mol

   OH-             1.762e-07   8.554e-08    -6.754    -7.068    -0.314      2.69
   H+              1.408e-07   1.000e-07    -6.852    -7.000    -0.148      0.00
   H2O             5.551e+01   9.096e-01     1.744    -0.041     0.000     18.06
Cl            3.262e+00
   Cl-             3.262e+00   1.922e+00     0.514     0.284    -0.230     19.82
   HCl             8.353e-10   6.661e-08    -9.078    -7.176     1.902     20.29
H(0)          4.841e-26
   H2              2.420e-26   7.129e-26   -25.616   -25.147     0.469     14.92
Mg            1.206e+00
   Mg+2            1.206e+00   1.207e+00     0.081     0.082     0.000    -18.39
   MgOH+           5.706e-05   3.640e-05    -4.244    -4.439    -0.195     (0)  
Na            8.498e-01
   Na+             8.498e-01   9.539e-01    -0.071    -0.020     0.050      0.96
O(0)          0.000e+00
   O2              0.000e+00   0.000e+00   -42.933   -42.486     0.447     30.31

------------------------------Saturation indices-------------------------------

  Phase               SI** log IAP   log K(297 K,   6 atm)

  H2(g)           -22.05    -25.15   -3.10  H2
  H2O(g)           -1.57     -0.04    1.53  H2O
  Halite           -1.31      0.26    1.57  NaCl
  O2(g)           -39.60    -42.49   -2.89  O2

**For a gas, SI = log10(fugacity). Fugacity = pressure * phi / 1 atm.
  For ideal gases, phi = 1.

------------------
End of simulation.
------------------

-------------------------------------
Reading input data for simulation 13.
-------------------------------------

-------------------------------------------
Beginning of initial solution calculations.
-------------------------------------------

Initial solution 12.	

-----------------------------Solution composition------------------------------

	Elements           Molality       Moles

	Cl                3.387e+00   3.387e+00  Charge balance
	Mg                1.052e+00   1.052e+00
	Na                1.282e+00   1.282e+00

----------------------------Description of solution----------------------------

                                       pH  =   7.000    
                                       pe  =   4.000    
      Specific Conductance (µS/cm,  24°C)  = 155920
                          Density (g/cm³)  =   1.11766
                               Volume (L)  =   1.05144
                        Viscosity (mPa s)  =   1.38728
                        Activity of water  =   0.903
                 Ionic strength (mol/kgw)  =   4.440e+00
                       Mass of water (kg)  =   1.000e+00
                 Total alkalinity (eq/kg)  =   4.885e-05
                         Temperature (°C)  =  24.00
                           Pressure (atm)  =  5.90
                  Electrical balance (eq)  =  -4.520e-14
 Percent error, 100*(Cat-|An|)/(Cat+|An|)  =  -0.00
                               Iterations  =   7
                                  Total H  = 1.110125e+02
                                  Total O  = 5.550627e+01

----------------------------Distribution of species----------------------------

                                               Log       Log       Log    mole V
   Species          Molality    Activity  Molality  Activity     Gamma   cm³/mol

   OH-             1.747e-07   8.489e-08    -6.758    -7.071    -0.313      2.65
   H+              1.407e-07   1.000e-07    -6.852    -7.000    -0.148      0.00
   H2O             5.551e+01   9.027e-01     1.744    -0.044     0.000     18.06
Cl            3.387e+00
   Cl-             3.387e+00   1.995e+00     0.530     0.300    -0.230     19.81
   HCl             8.915e-10   6.913e-08    -9.050    -7.160     1.890     20.29
H(0)          4.874e-26
   H2              2.437e-26   7.129e-26   -25.613   -25.147     0.466     14.92
Mg            1.052e+00
   Mg+2            1.052e+00   1.041e+00     0.022     0.017    -0.005    -18.40
   MgOH+           4.882e-05   3.115e-05    -4.311    -4.507    -0.195     (0)  
Na            1.282e+00
   Na+             1.282e+00   1.433e+00     0.108     0.156     0.048      0.95
O(0)          0.000e+00
   O2              0.000e+00   0.000e+00   -42.936   -42.492     0.444     30.31

------------------------------Saturation indices-------------------------------

  Phase               SI** log IAP   log K(297 K,   6 atm)

  H2(g)           -22.05    -25.15   -3.10  H2
  H2O(g)           -1.57     -0.04    1.53  H2O
  Halite           -1.11      0.46    1.57  NaCl
  O2(g)           -39.60    -42.49   -2.89  O2

**For a gas, SI = log10(fugacity). Fugacity = pressure * phi / 1 atm.
  For ideal gases, phi = 1.

------------------
End of simulation.
------------------

-------------------------------------
Reading input data for simulation 14.
-------------------------------------

-------------------------------------------
Beginning of initial solution calculations.
-------------------------------------------

Initial solution 13.	

-----------------------------Solution composition------------------------------

	Elements           Molality       Moles

	Cl                3.598e+00   3.598e+00  Charge balance
	Mg                8.856e-01   8.856e-01
	Na                1.827e+00   1.827e+00

----------------------------Description of solution----------------------------

                                       pH  =   7.000    
                                       pe  =   4.000    
      Specific Conductance (µS/cm,  24°C)  = 163398
                          Density (g/cm³)  =   1.12445
                               Volume (L)  =   1.05929
                        Viscosity (mPa s)  =   1.31391
                        Activity of water  =   0.893
                 Ionic strength (mol/kgw)  =   4.484e+00
                       Mass of water (kg)  =   1.000e+00
                 Total alkalinity (eq/kg)  =   4.142e-05
                         Temperature (°C)  =  24.00
                           Pressure (atm)  =  5.90
                  Electrical balance (eq)  =  -1.042e-12
 Percent error, 100*(Cat-|An|)/(Cat+|An|)  =  -0.00
                               Iterations  =   7
                                  Total H  = 1.110125e+02
                                  Total O  = 5.550626e+01

----------------------------Distribution of species----------------------------

                                               Log       Log       Log    mole V
   Species          Molality    Activity  Molality  Activity     Gamma   cm³/mol

   OH-             1.730e-07   8.395e-08    -6.762    -7.076    -0.314      2.71
   H+              1.408e-07   1.000e-07    -6.851    -7.000    -0.149      0.00
   H2O             5.551e+01   8.927e-01     1.744    -0.049     0.000     18.06
Cl            3.598e+00
   Cl-             3.598e+00   2.121e+00     0.556     0.326    -0.230     19.82
   HCl             9.076e-10   7.350e-08    -9.042    -7.134     1.908     20.29
H(0)          4.822e-26
   H2              2.411e-26   7.129e-26   -25.618   -25.147     0.471     14.92
Mg            8.856e-01
   Mg+2            8.855e-01   8.917e-01    -0.053    -0.050     0.003    -18.38
   MgOH+           4.138e-05   2.640e-05    -4.383    -4.578    -0.195     (0)  
Na            1.827e+00
   Na+             1.827e+00   2.056e+00     0.262     0.313     0.051      0.96
O(0)          0.000e+00
   O2              0.000e+00   0.000e+00   -42.951   -42.502     0.448     30.31

------------------------------Saturation indices-------------------------------

  Phase               SI** log IAP   log K(297 K,   6 atm)

  H2(g)           -22.05    -25.15   -3.10  H2
  H2O(g)           -1.58     -0.05    1.53  H2O
  Halite           -0.93      0.64    1.57  NaCl
  O2(g)           -39.61    -42.50   -2.89  O2

**For a gas, SI = log10(fugacity). Fugacity = pressure * phi / 1 atm.
  For ideal gases, phi = 1.

------------------
End of simulation.
------------------

-------------------------------------
Reading input data for simulation 15.
-------------------------------------

-------------------------------------------
Beginning of initial solution calculations.
-------------------------------------------

Initial solution 14.	

-----------------------------Solution composition------------------------------

	Elements           Molality       Moles

	Cl                3.839e+00   3.839e+00  Charge balance
	Mg                7.640e-01   7.640e-01
	Na                2.311e+00   2.311e+00

----------------------------Description of solution----------------------------

                                       pH  =   7.000    
                                       pe  =   4.000    
      Specific Conductance (µS/cm,  24°C)  = 171684
                          Density (g/cm³)  =   1.13200
                               Volume (L)  =   1.06696
                        Viscosity (mPa s)  =   1.26244
                        Activity of water  =   0.882
                 Ionic strength (mol/kgw)  =   4.603e+00
                       Mass of water (kg)  =   1.000e+00
                 Total alkalinity (eq/kg)  =   3.714e-05
                         Temperature (°C)  =  24.00
                           Pressure (atm)  =  5.90
                  Electrical balance (eq)  =  -2.101e-11
 Percent error, 100*(Cat-|An|)/(Cat+|An|)  =  -0.00
                               Iterations  =   7
                                  Total H  = 1.110125e+02
                                  Total O  = 5.550625e+01

----------------------------Distribution of species----------------------------

                                               Log       Log       Log    mole V
   Species          Molality    Activity  Molality  Activity     Gamma   cm³/mol

   OH-             1.714e-07   8.298e-08    -6.766    -7.081    -0.315      2.86
   H+              1.409e-07   1.000e-07    -6.851    -7.000    -0.149      0.00
   H2O             5.551e+01   8.825e-01     1.744    -0.054     0.000     18.06
Cl            3.839e+00
   Cl-             3.839e+00   2.267e+00     0.584     0.355    -0.229     19.84
   HCl             8.635e-10   7.857e-08    -9.064    -7.105     1.959     20.29
H(0)          4.686e-26
   H2              2.343e-26   7.129e-26   -25.630   -25.147     0.483     14.92
Mg            7.640e-01
   Mg+2            7.640e-01   8.081e-01    -0.117    -0.093     0.024    -18.33
   MgOH+           3.711e-05   2.365e-05    -4.430    -4.626    -0.196     (0)  
Na            2.311e+00
   Na+             2.311e+00   2.648e+00     0.364     0.423     0.059      1.00
O(0)          0.000e+00
   O2              0.000e+00   0.000e+00   -42.972   -42.512     0.460     30.31

------------------------------Saturation indices-------------------------------

  Phase               SI** log IAP   log K(297 K,   6 atm)

  H2(g)           -22.05    -25.15   -3.10  H2
  H2O(g)           -1.58     -0.05    1.53  H2O
  Halite           -0.79      0.78    1.57  NaCl
  O2(g)           -39.62    -42.51   -2.89  O2

**For a gas, SI = log10(fugacity). Fugacity = pressure * phi / 1 atm.
  For ideal gases, phi = 1.

------------------
End of simulation.
------------------

-------------------------------------
Reading input data for simulation 16.
-------------------------------------

-------------------------------------------
Beginning of initial solution calculations.
-------------------------------------------

Initial solution 15.	

-----------------------------Solution composition------------------------------

	Elements           Molality       Moles

	Cl                4.045e+00   4.045e+00  Charge balance
	Mg                6.180e-01   6.180e-01
	Na                2.809e+00   2.809e+00

----------------------------Description of solution----------------------------

                                       pH  =   7.000    
                                       pe  =   4.000    
      Specific Conductance (µS/cm,  24°C)  = 179643
                          Density (g/cm³)  =   1.13838
                               Volume (L)  =   1.07433
                        Viscosity (mPa s)  =   1.19966
                        Activity of water  =   0.873
                 Ionic strength (mol/kgw)  =   4.663e+00
                       Mass of water (kg)  =   1.000e+00
                 Total alkalinity (eq/kg)  =   3.049e-05
                         Temperature (°C)  =  24.00
                           Pressure (atm)  =  5.90
                  Electrical balance (eq)  =  -2.018e-10
 Percent error, 100*(Cat-|An|)/(Cat+|An|)  =  -0.00
                               Iterations  =   7
                                  Total H  = 1.110125e+02
                                  Total O  = 5.550625e+01

----------------------------Distribution of species----------------------------

                                               Log       Log       Log    mole V
   Species          Molality    Activity  Molality  Activity     Gamma   cm³/mol

   OH-             1.698e-07   8.209e-08    -6.770    -7.086    -0.316      2.94
   H+              1.409e-07   1.000e-07    -6.851    -7.000    -0.149      0.00
   H2O             5.551e+01   8.730e-01     1.744    -0.059     0.000     18.06
Cl            4.045e+00
   Cl-             4.045e+00   2.391e+00     0.607     0.379    -0.228     19.85
   HCl             8.590e-10   8.287e-08    -9.066    -7.082     1.984     20.29
H(0)          4.618e-26
   H2              2.309e-26   7.129e-26   -25.637   -25.147     0.490     14.92
Mg            6.180e-01
   Mg+2            6.180e-01   6.700e-01    -0.209    -0.174     0.035    -18.30
   MgOH+           3.046e-05   1.940e-05    -4.516    -4.712    -0.196     (0)  
Na            2.809e+00
   Na+             2.809e+00   3.248e+00     0.449     0.512     0.063      1.02
O(0)          0.000e+00
   O2              0.000e+00   0.000e+00   -42.988   -42.522     0.466     30.31

------------------------------Saturation indices-------------------------------

  Phase               SI** log IAP   log K(297 K,   6 atm)

  H2(g)           -22.05    -25.15   -3.10  H2
  H2O(g)           -1.59     -0.06    1.53  H2O
  Halite           -0.68      0.89    1.57  NaCl
  O2(g)           -39.63    -42.52   -2.89  O2

**For a gas, SI = log10(fugacity). Fugacity = pressure * phi / 1 atm.
  For ideal gases, phi = 1.

------------------
End of simulation.
------------------

-------------------------------------
Reading input data for simulation 17.
-------------------------------------

-------------------------------------------
Beginning of initial solution calculations.
-------------------------------------------

Initial solution 16.	

-----------------------------Solution composition------------------------------

	Elements           Molality       Moles

	Cl                4.237e+00   4.237e+00  Charge balance
	Mg                4.605e-01   4.605e-01
	Na                3.316e+00   3.316e+00

----------------------------Description of solution----------------------------

                                       pH  =   7.000    
                                       pe  =   4.000    
      Specific Conductance (µS/cm,  24°C)  = 187910
                          Density (g/cm³)  =   1.14426
                               Volume (L)  =   1.08163
                        Viscosity (mPa s)  =   1.13192
                        Activity of water  =   0.864
                 Ionic strength (mol/kgw)  =   4.698e+00
                       Mass of water (kg)  =   1.000e+00
                 Total alkalinity (eq/kg)  =   2.282e-05
                         Temperature (°C)  =  24.00
                           Pressure (atm)  =  5.90
                  Electrical balance (eq)  =  -1.348e-09
 Percent error, 100*(Cat-|An|)/(Cat+|An|)  =  -0.00
                               Iterations  =   7
                                  Total H  = 1.110125e+02
                                  Total O  = 5.550624e+01

----------------------------Distribution of species----------------------------

                                               Log       Log       Log    mole V
   Species          Molality    Activity  Molality  Activity     Gamma   cm³/mol

   OH-             1.682e-07   8.122e-08    -6.774    -7.090    -0.316      2.99
   H+              1.409e-07   1.000e-07    -6.851    -7.000    -0.149      0.00
   H2O             5.551e+01   8.638e-01     1.744    -0.064     0.000     18.06
Cl            4.237e+00
   Cl-             4.237e+00   2.506e+00     0.627     0.399    -0.228     19.86
   HCl             8.699e-10   8.687e-08    -9.061    -7.061     1.999     20.29
H(0)          4.579e-26
   H2              2.290e-26   7.129e-26   -25.640   -25.147     0.493     14.92
Mg            4.605e-01
   Mg+2            4.605e-01   5.067e-01    -0.337    -0.295     0.041    -18.29
   MgOH+           2.280e-05   1.451e-05    -4.642    -4.838    -0.196     (0)  
Na            3.316e+00
   Na+             3.316e+00   3.856e+00     0.521     0.586     0.066      1.03
O(0)          0.000e+00
   O2              0.000e+00   0.000e+00   -43.001   -42.531     0.470     30.31

------------------------------Saturation indices-------------------------------

  Phase               SI** log IAP   log K(297 K,   6 atm)

  H2(g)           -22.05    -25.15   -3.10  H2
  H2O(g)           -1.59     -0.06    1.53  H2O
  Halite           -0.58      0.99    1.57  NaCl
  O2(g)           -39.64    -42.53   -2.89  O2

**For a gas, SI = log10(fugacity). Fugacity = pressure * phi / 1 atm.
  For ideal gases, phi = 1.

------------------
End of simulation.
------------------

-------------------------------------
Reading input data for simulation 18.
-------------------------------------

-------------------------------------------
Beginning of initial solution calculations.
-------------------------------------------

Initial solution 17.	

-----------------------------Solution composition------------------------------

	Elements           Molality       Moles

	Cl                4.529e+00   4.529e+00  Charge balance
	Mg                3.538e-01   3.538e-01
	Na                3.822e+00   3.822e+00

----------------------------Description of solution----------------------------

                                       pH  =   7.000    
                                       pe  =   4.000    
      Specific Conductance (µS/cm,  24°C)  = 199046
                          Density (g/cm³)  =   1.15293
                               Volume (L)  =   1.09029
                        Viscosity (mPa s)  =   1.08752
                        Activity of water  =   0.852
                 Ionic strength (mol/kgw)  =   4.883e+00
                       Mass of water (kg)  =   1.000e+00
                 Total alkalinity (eq/kg)  =   1.871e-05
                         Temperature (°C)  =  24.00
                           Pressure (atm)  =  5.90
                  Electrical balance (eq)  =  -1.615e-08
 Percent error, 100*(Cat-|An|)/(Cat+|An|)  =  -0.00
                               Iterations  =   7
                                  Total H  = 1.110125e+02
                                  Total O  = 5.550624e+01

----------------------------Distribution of species----------------------------

                                               Log       Log       Log    mole V
   Species          Molality    Activity  Molality  Activity     Gamma   cm³/mol

   OH-             1.665e-07   8.011e-08    -6.778    -7.096    -0.318      3.23
   H+              1.411e-07   1.000e-07    -6.851    -7.000    -0.149      0.00
   H2O             5.551e+01   8.520e-01     1.744    -0.070     0.000     18.06
Cl            4.529e+00
   Cl-             4.529e+00   2.688e+00     0.656     0.429    -0.227     19.89
   HCl             7.783e-10   9.317e-08    -9.109    -7.031     2.078     20.29
H(0)          4.379e-26
   H2              2.189e-26   7.129e-26   -25.660   -25.147     0.513     14.92
Mg            3.538e-01
   Mg+2            3.538e-01   4.204e-01    -0.451    -0.376     0.075    -18.21
   MgOH+           1.869e-05   1.188e-05    -4.728    -4.925    -0.197     (0)  
Na            3.822e+00
   Na+             3.822e+00   4.573e+00     0.582     0.660     0.078      1.09
O(0)          0.000e+00
   O2              0.000e+00   0.000e+00   -43.031   -42.543     0.488     30.31

------------------------------Saturation indices-------------------------------

  Phase               SI** log IAP   log K(297 K,   6 atm)

  H2(g)           -22.05    -25.15   -3.10  H2
  H2O(g)           -1.60     -0.07    1.53  H2O
  Halite           -0.48      1.09    1.57  NaCl
  O2(g)           -39.65    -42.54   -2.89  O2

**For a gas, SI = log10(fugacity). Fugacity = pressure * phi / 1 atm.
  For ideal gases, phi = 1.

------------------
End of simulation.
------------------

-------------------------------------
Reading input data for simulation 19.
-------------------------------------

-------------------------------------------
Beginning of initial solution calculations.
-------------------------------------------

Initial solution 18.	

-----------------------------Solution composition------------------------------

	Elements           Molality       Moles

	Cl                4.769e+00   4.769e+00  Charge balance
	Mg                1.650e-01   1.650e-01
	Na                4.439e+00   4.439e+00

----------------------------Description of solution----------------------------

                                       pH  =   7.000    
                                       pe  =   4.000    
      Specific Conductance (µS/cm,  24°C)  = 211110
                          Density (g/cm³)  =   1.15997
                               Volume (L)  =   1.09928
                        Viscosity (mPa s)  =   1.00605
                        Activity of water  =   0.841
                 Ionic strength (mol/kgw)  =   4.934e+00
                       Mass of water (kg)  =   1.000e+00
                 Total alkalinity (eq/kg)  =   8.811e-06
                         Temperature (°C)  =  24.00
                           Pressure (atm)  =  5.90
                  Electrical balance (eq)  =   1.325e-16
 Percent error, 100*(Cat-|An|)/(Cat+|An|)  =   0.00
                               Iterations  =   8
                                  Total H  = 1.110124e+02
                                  Total O  = 5.550623e+01

----------------------------Distribution of species----------------------------

                                               Log       Log       Log    mole V
   Species          Molality    Activity  Molality  Activity     Gamma   cm³/mol

   OH-             1.645e-07   7.905e-08    -6.784    -7.102    -0.318      3.29
   H+              1.411e-07   1.000e-07    -6.851    -7.000    -0.149      0.00
   H2O             5.551e+01   8.407e-01     1.744    -0.075     0.000     18.06
Cl            4.769e+00
   Cl-             4.769e+00   2.833e+00     0.678     0.452    -0.226     19.90
   HCl             7.803e-10   9.820e-08    -9.108    -7.008     2.100     20.29
H(0)          4.325e-26
   H2              2.163e-26   7.129e-26   -25.665   -25.147     0.518     14.92
Mg            1.650e-01
   Mg+2            1.650e-01   2.003e-01    -0.783    -0.698     0.084    -18.18
   MgOH+           8.789e-06   5.584e-06    -5.056    -5.253    -0.197     (0)  
Na            4.439e+00
   Na+             4.439e+00   5.354e+00     0.647     0.729     0.081      1.10
O(0)          0.000e+00
   O2              0.000e+00   0.000e+00   -43.048   -42.554     0.493     30.31

------------------------------Saturation indices-------------------------------

  Phase               SI** log IAP   log K(297 K,   6 atm)

  H2(g)           -22.05    -25.15   -3.10  H2
  H2O(g)           -1.60     -0.08    1.53  H2O
  Halite           -0.39      1.18    1.57  NaCl
  O2(g)           -39.67    -42.55   -2.89  O2

**For a gas, SI = log10(fugacity). Fugacity = pressure * phi / 1 atm.
  For ideal gases, phi = 1.

------------------
End of simulation.
------------------

-------------------------------------
Reading input data for simulation 20.
-------------------------------------

------------------
End of simulation.
------------------

-------------------------------------
Reading input data for simulation 21.
-------------------------------------

-------------------------------------------
Beginning of initial solution calculations.
-------------------------------------------

Initial solution 1.	

-----------------------------Solution composition------------------------------

	Elements           Molality       Moles

	Pure water     

----------------------------Description of solution----------------------------

                                       pH  =   7.000    
                                       pe  =   4.000    
      Specific Conductance (µS/cm,  25°C)  = 0
                          Density (g/cm³)  =   0.99704
                               Volume (L)  =   1.00297
                        Viscosity (mPa s)  =   0.89002
                        Activity of water  =   1.000
                 Ionic strength (mol/kgw)  =   1.007e-07
                       Mass of water (kg)  =   1.000e+00
                 Total alkalinity (eq/kg)  =   1.217e-09
                         Temperature (°C)  =  25.00
                  Electrical balance (eq)  =  -1.217e-09
 Percent error, 100*(Cat-|An|)/(Cat+|An|)  =  -0.60
                               Iterations  =   0
                                  Total H  = 1.110124e+02
                                  Total O  = 5.550622e+01

----------------------------Distribution of species----------------------------

                                               Log       Log       Log    mole V
   Species          Molality    Activity  Molality  Activity     Gamma   cm³/mol

   OH-             1.013e-07   1.012e-07    -6.995    -6.995    -0.000     -4.14
   H+              1.001e-07   1.000e-07    -7.000    -7.000    -0.000      0.00
   H2O             5.551e+01   1.000e+00     1.744     0.000     0.000     18.07
H(0)          1.416e-25
   H2              7.079e-26   7.079e-26   -25.150   -25.150     0.000     14.99
O(0)          0.000e+00
   O2              0.000e+00   0.000e+00   -42.063   -42.063     0.000     30.40

------------------------------Saturation indices-------------------------------

  Phase               SI** log IAP   log K(298 K,   1 atm)

  H2(g)           -22.05    -25.15   -3.10  H2
  H2O(g)           -1.50      0.00    1.50  H2O
  O2(g)           -39.17    -42.06   -2.89  O2

**For a gas, SI = log10(fugacity). Fugacity = pressure * phi / 1 atm.
  For ideal gases, phi = 1.

------------------
End of simulation.
------------------

-------------------------------------
Reading input data for simulation 22.
-------------------------------------

-------------------------------------------
Beginning of initial solution calculations.
-------------------------------------------

Initial solution 2.	

-----------------------------Solution composition------------------------------

	Elements           Molality       Moles

	Pure water     

----------------------------Description of solution----------------------------

                                       pH  =   7.000    
                                       pe  =   4.000    
      Specific Conductance (µS/cm,  25°C)  = 0
                          Density (g/cm³)  =   0.99704
                               Volume (L)  =   1.00297
                        Viscosity (mPa s)  =   0.89002
                        Activity of water  =   1.000
                 Ionic strength (mol/kgw)  =   1.007e-07
                       Mass of water (kg)  =   1.000e+00
                 Total alkalinity (eq/kg)  =   1.217e-09
                         Temperature (°C)  =  25.00
                  Electrical balance (eq)  =  -1.217e-09
 Percent error, 100*(Cat-|An|)/(Cat+|An|)  =  -0.60
                               Iterations  =   0
                                  Total H  = 1.110124e+02
                                  Total O  = 5.550622e+01

----------------------------Distribution of species----------------------------

                                               Log       Log       Log    mole V
   Species          Molality    Activity  Molality  Activity     Gamma   cm³/mol

   OH-             1.013e-07   1.012e-07    -6.995    -6.995    -0.000     -4.14
   H+              1.001e-07   1.000e-07    -7.000    -7.000    -0.000      0.00
   H2O             5.551e+01   1.000e+00     1.744     0.000     0.000     18.07
H(0)          1.416e-25
   H2              7.079e-26   7.079e-26   -25.150   -25.150     0.000     14.99
O(0)          0.000e+00
   O2              0.000e+00   0.000e+00   -42.063   -42.063     0.000     30.40

------------------------------Saturation indices-------------------------------

  Phase               SI** log IAP   log K(298 K,   1 atm)

  H2(g)           -22.05    -25.15   -3.10  H2
  H2O(g)           -1.50      0.00    1.50  H2O
  O2(g)           -39.17    -42.06   -2.89  O2

**For a gas, SI = log10(fugacity). Fugacity = pressure * phi / 1 atm.
  For ideal gases, phi = 1.

------------------
End of simulation.
------------------

-------------------------------------
Reading input data for simulation 23.
-------------------------------------

-------------------------------------------
Beginning of initial solution calculations.
-------------------------------------------

Initial solution 1.	

-----------------------------Solution composition------------------------------

	Elements           Molality       Moles

	Pure water     

----------------------------Description of solution----------------------------

                                       pH  =   6.997      Charge balance
                                       pe  =   4.000    
      Specific Conductance (µS/cm,  25°C)  = 0
                          Density (g/cm³)  =   0.99704
                               Volume (L)  =   1.00297
                        Viscosity (mPa s)  =   0.89002
                        Activity of water  =   1.000
                 Ionic strength (mol/kgw)  =   1.006e-07
                       Mass of water (kg)  =   1.000e+00
                 Total alkalinity (eq/kg)  =   3.040e-17
                         Temperature (°C)  =  25.00
                  Electrical balance (eq)  =  -3.040e-17
 Percent error, 100*(Cat-|An|)/(Cat+|An|)  =  -0.00
                               Iterations  =   2
                                  Total H  = 1.110124e+02
                                  Total O  = 5.550622e+01

----------------------------Distribution of species----------------------------

                                               Log       Log       Log    mole V
   Species          Molality    Activity  Molality  Activity     Gamma   cm³/mol

   OH-             1.006e-07   1.006e-07    -6.997    -6.997    -0.000     -4.14
   H+              1.006e-07   1.006e-07    -6.997    -6.997    -0.000      0.00
   H2O             5.551e+01   1.000e+00     1.744    -0.000     0.000     18.07
H(0)          1.433e-25
   H2              7.166e-26   7.166e-26   -25.145   -25.145     0.000     14.99
O(0)          0.000e+00
   O2              0.000e+00   0.000e+00   -42.073   -42.073     0.000     30.40

------------------------------Saturation indices-------------------------------

  Phase               SI** log IAP   log K(298 K,   1 atm)

  H2(g)           -22.05    -25.14   -3.10  H2
  H2O(g)           -1.50     -0.00    1.50  H2O
  O2(g)           -39.18    -42.07   -2.89  O2

**For a gas, SI = log10(fugacity). Fugacity = pressure * phi / 1 atm.
  For ideal gases, phi = 1.

------------------
End of simulation.
------------------

-------------------------------------
Reading input data for simulation 24.
-------------------------------------


	Reading data from rho_MgNaCl.49.prn ...
-------------------------------------------
Beginning of initial solution calculations.
-------------------------------------------

Initial solution 1.	

-----------------------------Solution composition------------------------------

	Elements           Molality       Moles

	Cl                1.995e+00   1.995e+00  Charge balance
	Mg                8.592e-01   8.592e-01
	Na                2.767e-01   2.767e-01

----------------------------Description of solution----------------------------

                                       pH  =   7.000    
                                       pe  =   4.000    
      Specific Conductance (µS/cm,  50°C)  = 173030
                          Density (g/cm³)  =   1.06124
                               Volume (L)  =   1.03462
                        Viscosity (mPa s)  =   0.77743
                        Activity of water  =   0.947
                 Ionic strength (mol/kgw)  =   2.854e+00
                       Mass of water (kg)  =   1.000e+00
                 Total alkalinity (eq/kg)  =   1.762e-04
                         Temperature (°C)  =  49.60
                           Pressure (atm)  =  5.90
                  Electrical balance (eq)  =   8.715e-14
 Percent error, 100*(Cat-|An|)/(Cat+|An|)  =   0.00
                               Iterations  =   6
                                  Total H  = 1.110126e+02
                                  Total O  = 5.550639e+01

----------------------------Distribution of species----------------------------

                                               Log       Log       Log    mole V
   Species          Molality    Activity  Molality  Activity     Gamma   cm³/mol

   OH-             1.022e-06   5.076e-07    -5.990    -6.294    -0.304      1.28
   H+              1.409e-07   1.000e-07    -6.851    -7.000    -0.149      0.00
   H2O             5.551e+01   9.468e-01     1.744    -0.024     0.000     18.23
Cl            1.995e+00
   Cl-             1.995e+00   1.126e+00     0.300     0.052    -0.248     19.87
   HCl             2.031e-09   3.330e-08    -8.692    -7.478     1.215     21.64
H(0)          5.646e-26
   H2              2.823e-26   5.629e-26   -25.549   -25.250     0.300     16.40
Mg            8.592e-01
   Mg+2            8.590e-01   4.194e-01    -0.066    -0.377    -0.311    -19.79
   MgOH+           1.753e-04   1.122e-04    -3.756    -3.950    -0.194     (0)  
Na            2.767e-01
   Na+             2.767e-01   2.390e-01    -0.558    -0.622    -0.064      0.95
O(0)          3.606e-35
   O2              1.803e-35   3.478e-35   -34.744   -34.459     0.285     31.89

------------------------------Saturation indices-------------------------------

  Phase               SI** log IAP   log K(322 K,   6 atm)

  H2(g)           -22.12    -25.25   -3.13  H2
  H2O(g)           -0.95     -0.02    0.92  H2O
  Halite           -2.16     -0.57    1.59  NaCl
  O2(g)           -31.43    -34.46   -3.03  O2

**For a gas, SI = log10(fugacity). Fugacity = pressure * phi / 1 atm.
  For ideal gases, phi = 1.

------------------
End of simulation.
------------------

-------------------------------------
Reading input data for simulation 25.
-------------------------------------

-------------------------------------------
Beginning of initial solution calculations.
-------------------------------------------

Initial solution 2.	

-----------------------------Solution composition------------------------------

	Elements           Molality       Moles

	Cl                2.064e+00   2.064e+00  Charge balance
	Mg                7.440e-01   7.440e-01
	Na                5.765e-01   5.765e-01

----------------------------Description of solution----------------------------

                                       pH  =   7.000    
                                       pe  =   4.000    
      Specific Conductance (µS/cm,  50°C)  = 175031
                          Density (g/cm³)  =   1.06357
                               Volume (L)  =   1.03852
                        Viscosity (mPa s)  =   0.74812
                        Activity of water  =   0.942
                 Ionic strength (mol/kgw)  =   2.808e+00
                       Mass of water (kg)  =   1.000e+00
                 Total alkalinity (eq/kg)  =   1.493e-04
                         Temperature (°C)  =  49.60
                           Pressure (atm)  =  5.90
                  Electrical balance (eq)  =   9.116e-14
 Percent error, 100*(Cat-|An|)/(Cat+|An|)  =   0.00
                               Iterations  =   6
                                  Total H  = 1.110126e+02
                                  Total O  = 5.550637e+01

----------------------------Distribution of species----------------------------

                                               Log       Log       Log    mole V
   Species          Molality    Activity  Molality  Activity     Gamma   cm³/mol

   OH-             1.016e-06   5.053e-07    -5.993    -6.296    -0.303      1.21
   H+              1.408e-07   1.000e-07    -6.851    -7.000    -0.149      0.00
   H2O             5.551e+01   9.425e-01     1.744    -0.026     0.000     18.23
Cl            2.064e+00
   Cl-             2.064e+00   1.166e+00     0.315     0.067    -0.248     19.86
   HCl             2.198e-09   3.446e-08    -8.658    -7.463     1.195     21.64
H(0)          5.709e-26
   H2              2.855e-26   5.629e-26   -25.544   -25.250     0.295     16.40
Mg            7.440e-01
   Mg+2            7.439e-01   3.570e-01    -0.128    -0.447    -0.319    -19.81
   MgOH+           1.485e-04   9.507e-05    -3.828    -4.022    -0.194     (0)  
Na            5.765e-01
   Na+             5.765e-01   4.947e-01    -0.239    -0.306    -0.066      0.94
O(0)          3.611e-35
   O2              1.805e-35   3.447e-35   -34.743   -34.463     0.281     31.89

------------------------------Saturation indices-------------------------------

  Phase               SI** log IAP   log K(322 K,   6 atm)

  H2(g)           -22.12    -25.25   -3.13  H2
  H2O(g)           -0.95     -0.03    0.92  H2O
  Halite           -1.83     -0.24    1.59  NaCl
  O2(g)           -31.43    -34.46   -3.03  O2

**For a gas, SI = log10(fugacity). Fugacity = pressure * phi / 1 atm.
  For ideal gases, phi = 1.

------------------
End of simulation.
------------------

-------------------------------------
Reading input data for simulation 26.
-------------------------------------

-------------------------------------------
Beginning of initial solution calculations.
-------------------------------------------

Initial solution 3.	

-----------------------------Solution composition------------------------------

	Elements           Molality       Moles

	Cl                2.189e+00   2.189e+00  Charge balance
	Mg                6.791e-01   6.791e-01
	Na                8.312e-01   8.312e-01

----------------------------Description of solution----------------------------

                                       pH  =   7.000    
                                       pe  =   4.000    
      Specific Conductance (µS/cm,  50°C)  = 180816
                          Density (g/cm³)  =   1.06777
                               Volume (L)  =   1.04258
                        Viscosity (mPa s)  =   0.73208
                        Activity of water  =   0.937
                 Ionic strength (mol/kgw)  =   2.868e+00
                       Mass of water (kg)  =   1.000e+00
                 Total alkalinity (eq/kg)  =   1.388e-04
                         Temperature (°C)  =  49.60
                           Pressure (atm)  =  5.90
                  Electrical balance (eq)  =   8.083e-14
 Percent error, 100*(Cat-|An|)/(Cat+|An|)  =   0.00
                               Iterations  =   6
                                  Total H  = 1.110126e+02
                                  Total O  = 5.550636e+01

----------------------------Distribution of species----------------------------

                                               Log       Log       Log    mole V
   Species          Molality    Activity  Molality  Activity     Gamma   cm³/mol

   OH-             1.013e-06   5.024e-07    -5.995    -6.299    -0.304      1.30
   H+              1.409e-07   1.000e-07    -6.851    -7.000    -0.149      0.00
   H2O             5.551e+01   9.371e-01     1.744    -0.028     0.000     18.23
Cl            2.189e+00
   Cl-             2.189e+00   1.236e+00     0.340     0.092    -0.248     19.88
[...]
                               Iterations  =   7
                                  Total H  = 1.110194e+02
                                  Total O  = 5.551315e+01

----------------------------Distribution of species----------------------------

                                               Log       Log       Log    mole V
   Species          Molality    Activity  Molality  Activity     Gamma   cm³/mol

   OH-             1.145e-05   5.000e-06    -4.941    -5.301    -0.360      3.34
   H+              1.475e-07   1.000e-07    -6.831    -7.000    -0.169      0.00
   H2O             5.551e+01   8.826e-01     1.744    -0.054     0.000     18.79
Cl            3.832e+00
   Cl-             3.832e+00   2.046e+00     0.583     0.311    -0.273     19.56
   HCl             4.947e-10   4.441e-08    -9.306    -7.353     1.953     23.02
H(0)          2.573e-26
   H2              1.286e-26   3.902e-26   -25.891   -25.409     0.482     18.29
Mg            7.640e-01
   Mg+2            7.571e-01   5.981e-01    -0.121    -0.223    -0.102    -21.09
   MgOH+           6.919e-03   4.144e-03    -2.160    -2.383    -0.223     (0)  
Na            2.311e+00
   Na+             2.311e+00   2.408e+00     0.364     0.382     0.018      1.68
O(0)          1.132e-23
   O2              5.662e-24   1.629e-23   -23.247   -22.788     0.459     33.86

------------------------------Saturation indices-------------------------------

  Phase               SI** log IAP   log K(372 K,   6 atm)

  H2(g)           -22.32    -25.41   -3.09  H2
  H2O(g)           -0.07     -0.05    0.01  H2O
  Halite           -0.93      0.69    1.62  NaCl
  O2(g)           -19.67    -22.79   -3.12  O2

**For a gas, SI = log10(fugacity). Fugacity = pressure * phi / 1 atm.
  For ideal gases, phi = 1.

------------------
End of simulation.
------------------

-------------------------------------
Reading input data for simulation 82.
-------------------------------------

-------------------------------------------
Beginning of initial solution calculations.
-------------------------------------------

Initial solution 15.	

-----------------------------Solution composition------------------------------

	Elements           Molality       Moles

	Cl                4.039e+00   4.039e+00  Charge balance
	Mg                6.180e-01   6.180e-01
	Na                2.809e+00   2.809e+00

----------------------------Description of solution----------------------------

                                       pH  =   7.000    
                                       pe  =   4.000    
      Specific Conductance (µS/cm,  99°C)  = 467088
                          Density (g/cm³)  =   1.09813
                               Volume (L)  =   1.11361
                        Viscosity (mPa s)  =   0.37605
                        Activity of water  =   0.873
                 Ionic strength (mol/kgw)  =   4.651e+00
                       Mass of water (kg)  =   1.000e+00
                 Total alkalinity (eq/kg)  =   5.694e-03
                         Temperature (°C)  =  99.40
                           Pressure (atm)  =  5.90
                  Electrical balance (eq)  =  -3.451e-12
 Percent error, 100*(Cat-|An|)/(Cat+|An|)  =  -0.00
                               Iterations  =   7
                                  Total H  = 1.110181e+02
                                  Total O  = 5.551191e+01

----------------------------Distribution of species----------------------------

                                               Log       Log       Log    mole V
   Species          Molality    Activity  Molality  Activity     Gamma   cm³/mol

   OH-             1.135e-05   4.946e-06    -4.945    -5.306    -0.361      3.44
   H+              1.476e-07   1.000e-07    -6.831    -7.000    -0.169      0.00
   H2O             5.551e+01   8.731e-01     1.744    -0.059     0.000     18.79
Cl            4.039e+00
   Cl-             4.039e+00   2.159e+00     0.606     0.334    -0.272     19.57
   HCl             4.910e-10   4.685e-08    -9.309    -7.329     1.980     23.02
H(0)          2.534e-26
   H2              1.267e-26   3.902e-26   -25.897   -25.409     0.488     18.29
Mg            6.180e-01
   Mg+2            6.123e-01   4.962e-01    -0.213    -0.304    -0.091    -21.07
   MgOH+           5.682e-03   3.401e-03    -2.245    -2.468    -0.223     (0)  
Na            2.809e+00
   Na+             2.809e+00   2.954e+00     0.449     0.470     0.022      1.68
O(0)          1.092e-23
   O2              5.462e-24   1.594e-23   -23.263   -22.798     0.465     33.86

------------------------------Saturation indices-------------------------------

  Phase               SI** log IAP   log K(372 K,   6 atm)

  H2(g)           -22.32    -25.41   -3.09  H2
  H2O(g)           -0.07     -0.06    0.01  H2O
  Halite           -0.81      0.80    1.62  NaCl
  O2(g)           -19.68    -22.80   -3.12  O2

**For a gas, SI = log10(fugacity). Fugacity = pressure * phi / 1 atm.
  For ideal gases, phi = 1.

------------------
End of simulation.
------------------

-------------------------------------
Reading input data for simulation 83.
-------------------------------------

-------------------------------------------
Beginning of initial solution calculations.
-------------------------------------------

Initial solution 16.	

-----------------------------Solution composition------------------------------

	Elements           Molality       Moles

	Cl                4.233e+00   4.233e+00  Charge balance
	Mg                4.605e-01   4.605e-01
	Na                3.316e+00   3.316e+00

----------------------------Description of solution----------------------------

                                       pH  =   7.000    
                                       pe  =   4.000    
      Specific Conductance (µS/cm,  99°C)  = 484950
                          Density (g/cm³)  =   1.10341
                               Volume (L)  =   1.12160
                        Viscosity (mPa s)  =   0.35573
                        Activity of water  =   0.864
                 Ionic strength (mol/kgw)  =   4.689e+00
                       Mass of water (kg)  =   1.000e+00
                 Total alkalinity (eq/kg)  =   4.268e-03
                         Temperature (°C)  =  99.40
                           Pressure (atm)  =  5.90
                  Electrical balance (eq)  =  -2.969e-11
 Percent error, 100*(Cat-|An|)/(Cat+|An|)  =  -0.00
                               Iterations  =   7
                                  Total H  = 1.110167e+02
                                  Total O  = 5.551049e+01

----------------------------Distribution of species----------------------------

                                               Log       Log       Log    mole V
   Species          Molality    Activity  Molality  Activity     Gamma   cm³/mol

   OH-             1.124e-05   4.894e-06    -4.949    -5.310    -0.361      3.50
   H+              1.476e-07   1.000e-07    -6.831    -7.000    -0.169      0.00
   H2O             5.551e+01   8.638e-01     1.744    -0.064     0.000     18.79
Cl            4.233e+00
   Cl-             4.233e+00   2.264e+00     0.627     0.355    -0.272     19.58
   HCl             4.961e-10   4.913e-08    -9.304    -7.309     1.996     23.02
H(0)          2.511e-26
   H2              1.256e-26   3.902e-26   -25.901   -25.409     0.492     18.29
Mg            4.605e-01
   Mg+2            4.563e-01   3.756e-01    -0.341    -0.425    -0.084    -21.06
   MgOH+           4.257e-03   2.547e-03    -2.371    -2.594    -0.223     (0)  
Na            3.316e+00
   Na+             3.316e+00   3.508e+00     0.521     0.545     0.024      1.68
O(0)          1.060e-23
   O2              5.300e-24   1.560e-23   -23.276   -22.807     0.469     33.86

------------------------------Saturation indices-------------------------------

  Phase               SI** log IAP   log K(372 K,   6 atm)

  H2(g)           -22.32    -25.41   -3.09  H2
  H2O(g)           -0.08     -0.06    0.01  H2O
  Halite           -0.72      0.90    1.62  NaCl
  O2(g)           -19.69    -22.81   -3.12  O2

**For a gas, SI = log10(fugacity). Fugacity = pressure * phi / 1 atm.
  For ideal gases, phi = 1.

------------------
End of simulation.
------------------

-------------------------------------
Reading input data for simulation 84.
-------------------------------------

-------------------------------------------
Beginning of initial solution calculations.
-------------------------------------------

Initial solution 17.	

-----------------------------Solution composition------------------------------

	Elements           Molality       Moles

	Cl                4.526e+00   4.526e+00  Charge balance
	Mg                3.538e-01   3.538e-01
	Na                3.822e+00   3.822e+00

----------------------------Description of solution----------------------------

                                       pH  =   7.000    
                                       pe  =   4.000    
      Specific Conductance (µS/cm,  99°C)  = 511160
                          Density (g/cm³)  =   1.11168
                               Volume (L)  =   1.13069
                        Viscosity (mPa s)  =   0.34231
                        Activity of water  =   0.852
                 Ionic strength (mol/kgw)  =   4.876e+00
                       Mass of water (kg)  =   1.000e+00
                 Total alkalinity (eq/kg)  =   3.498e-03
                         Temperature (°C)  =  99.40
                           Pressure (atm)  =  5.90
                  Electrical balance (eq)  =  -4.829e-10
 Percent error, 100*(Cat-|An|)/(Cat+|An|)  =  -0.00
                               Iterations  =   7
                                  Total H  = 1.110159e+02
                                  Total O  = 5.550972e+01

----------------------------Distribution of species----------------------------

                                               Log       Log       Log    mole V
   Species          Molality    Activity  Molality  Activity     Gamma   cm³/mol

   OH-             1.113e-05   4.827e-06    -4.953    -5.316    -0.363      3.79
   H+              1.478e-07   1.000e-07    -6.830    -7.000    -0.170      0.00
   H2O             5.551e+01   8.521e-01     1.744    -0.070     0.000     18.79
Cl            4.526e+00
   Cl-             4.526e+00   2.427e+00     0.656     0.385    -0.271     19.63
   HCl             4.431e-10   5.269e-08    -9.353    -7.278     2.075     23.02
H(0)          2.400e-26
   H2              1.200e-26   3.902e-26   -25.921   -25.409     0.512     18.29
Mg            3.538e-01
   Mg+2            3.503e-01   3.114e-01    -0.456    -0.507    -0.051    -21.01
   MgOH+           3.487e-03   2.083e-03    -2.458    -2.681    -0.224     (0)  
Na            3.822e+00
   Na+             3.822e+00   4.160e+00     0.582     0.619     0.037      1.69
O(0)          9.880e-24
   O2              4.940e-24   1.518e-23   -23.306   -22.819     0.488     33.86

------------------------------Saturation indices-------------------------------

  Phase               SI** log IAP   log K(372 K,   6 atm)

  H2(g)           -22.32    -25.41   -3.09  H2
  H2O(g)           -0.08     -0.07    0.01  H2O
  Halite           -0.61      1.00    1.62  NaCl
  O2(g)           -19.70    -22.82   -3.12  O2

**For a gas, SI = log10(fugacity). Fugacity = pressure * phi / 1 atm.
  For ideal gases, phi = 1.

------------------
End of simulation.
------------------

-------------------------------------
Reading input data for simulation 85.
-------------------------------------

-------------------------------------------
Beginning of initial solution calculations.
-------------------------------------------

Initial solution 18.	

-----------------------------Solution composition------------------------------

	Elements           Molality       Moles

	Cl                4.767e+00   4.767e+00  Charge balance
	Mg                1.650e-01   1.650e-01
	Na                4.439e+00   4.439e+00

----------------------------Description of solution----------------------------

                                       pH  =   7.000    
                                       pe  =   4.000    
      Specific Conductance (µS/cm,  99°C)  = 537160
                          Density (g/cm³)  =   1.11803
                               Volume (L)  =   1.14049
                        Viscosity (mPa s)  =   0.31792
                        Activity of water  =   0.841
                 Ionic strength (mol/kgw)  =   4.931e+00
                       Mass of water (kg)  =   1.000e+00
                 Total alkalinity (eq/kg)  =   1.653e-03
                         Temperature (°C)  =  99.40
                           Pressure (atm)  =  5.90
                  Electrical balance (eq)  =  -3.777e-09
 Percent error, 100*(Cat-|An|)/(Cat+|An|)  =  -0.00
                               Iterations  =   7
                                  Total H  = 1.110141e+02
                                  Total O  = 5.550787e+01

----------------------------Distribution of species----------------------------

                                               Log       Log       Log    mole V
   Species          Molality    Activity  Molality  Activity     Gamma   cm³/mol

   OH-             1.100e-05   4.763e-06    -4.959    -5.322    -0.363      3.87
   H+              1.478e-07   1.000e-07    -6.830    -7.000    -0.170      0.00
   H2O             5.551e+01   8.407e-01     1.744    -0.075     0.000     18.79
Cl            4.767e+00
   Cl-             4.767e+00   2.559e+00     0.678     0.408    -0.270     19.65
   HCl             4.428e-10   5.555e-08    -9.354    -7.255     2.098     23.02
H(0)          2.369e-26
   H2              1.184e-26   3.902e-26   -25.926   -25.409     0.518     18.29
Mg            1.650e-01
   Mg+2            1.634e-01   1.486e-01    -0.787    -0.828    -0.041    -20.99
   MgOH+           1.642e-03   9.804e-04    -2.785    -3.009    -0.224     (0)  
Na            4.439e+00
   Na+             4.439e+00   4.873e+00     0.647     0.688     0.040      1.69
O(0)          9.497e-24
   O2              4.749e-24   1.478e-23   -23.323   -22.830     0.493     33.86

------------------------------Saturation indices-------------------------------

  Phase               SI** log IAP   log K(372 K,   6 atm)

  H2(g)           -22.32    -25.41   -3.09  H2
  H2O(g)           -0.09     -0.08    0.01  H2O
  Halite           -0.52      1.10    1.62  NaCl
  O2(g)           -19.71    -22.83   -3.12  O2

**For a gas, SI = log10(fugacity). Fugacity = pressure * phi / 1 atm.
  For ideal gases, phi = 1.

------------------
End of simulation.
------------------

-------------------------------------
Reading input data for simulation 86.
-------------------------------------

------------------
End of simulation.
------------------

-------------------------------------
Reading input data for simulation 87.
-------------------------------------

-------------------------------------------
Beginning of initial solution calculations.
-------------------------------------------

Initial solution 1.	

-----------------------------Solution composition------------------------------

	Elements           Molality       Moles

	Pure water     

----------------------------Description of solution----------------------------

                                       pH  =   7.000    
                                       pe  =   4.000    
      Specific Conductance (µS/cm,  25°C)  = 0
                          Density (g/cm³)  =   0.99704
                               Volume (L)  =   1.00297
                        Viscosity (mPa s)  =   0.89002
                        Activity of water  =   1.000
                 Ionic strength (mol/kgw)  =   1.007e-07
                       Mass of water (kg)  =   1.000e+00
                 Total alkalinity (eq/kg)  =   1.217e-09
                         Temperature (°C)  =  25.00
                  Electrical balance (eq)  =  -1.217e-09
 Percent error, 100*(Cat-|An|)/(Cat+|An|)  =  -0.60
                               Iterations  =   0
                                  Total H  = 1.110124e+02
                                  Total O  = 5.550622e+01

----------------------------Distribution of species----------------------------

                                               Log       Log       Log    mole V
   Species          Molality    Activity  Molality  Activity     Gamma   cm³/mol

   OH-             1.013e-07   1.012e-07    -6.995    -6.995    -0.000     -4.14
   H+              1.001e-07   1.000e-07    -7.000    -7.000    -0.000      0.00
   H2O             5.551e+01   1.000e+00     1.744     0.000     0.000     18.07
H(0)          1.416e-25
   H2              7.079e-26   7.079e-26   -25.150   -25.150     0.000     14.99
O(0)          0.000e+00
   O2              0.000e+00   0.000e+00   -42.063   -42.063     0.000     30.40

------------------------------Saturation indices-------------------------------

  Phase               SI** log IAP   log K(298 K,   1 atm)

  H2(g)           -22.05    -25.15   -3.10  H2
  H2O(g)           -1.50      0.00    1.50  H2O
  O2(g)           -39.17    -42.06   -2.89  O2

**For a gas, SI = log10(fugacity). Fugacity = pressure * phi / 1 atm.
  For ideal gases, phi = 1.

------------------
End of simulation.
------------------

-------------------------------------
Reading input data for simulation 88.
-------------------------------------

-------------------------------------------
Beginning of initial solution calculations.
-------------------------------------------

Initial solution 2.	

-----------------------------Solution composition------------------------------

	Elements           Molality       Moles

	Pure water     

----------------------------Description of solution----------------------------

                                       pH  =   7.000    
                                       pe  =   4.000    
      Specific Conductance (µS/cm,  25°C)  = 0
                          Density (g/cm³)  =   0.99704
                               Volume (L)  =   1.00297
                        Viscosity (mPa s)  =   0.89002
                        Activity of water  =   1.000
                 Ionic strength (mol/kgw)  =   1.007e-07
                       Mass of water (kg)  =   1.000e+00
                 Total alkalinity (eq/kg)  =   1.217e-09
                         Temperature (°C)  =  25.00
                  Electrical balance (eq)  =  -1.217e-09
 Percent error, 100*(Cat-|An|)/(Cat+|An|)  =  -0.60
                               Iterations  =   0
                                  Total H  = 1.110124e+02
                                  Total O  = 5.550622e+01

----------------------------Distribution of species----------------------------

                                               Log       Log       Log    mole V
   Species          Molality    Activity  Molality  Activity     Gamma   cm³/mol

   OH-             1.013e-07   1.012e-07    -6.995    -6.995    -0.000     -4.14
   H+              1.001e-07   1.000e-07    -7.000    -7.000    -0.000      0.00
   H2O             5.551e+01   1.000e+00     1.744     0.000     0.000     18.07
H(0)          1.416e-25
   H2              7.079e-26   7.079e-26   -25.150   -25.150     0.000     14.99
O(0)          0.000e+00
   O2              0.000e+00   0.000e+00   -42.063   -42.063     0.000     30.40

------------------------------Saturation indices-------------------------------

  Phase               SI** log IAP   log K(298 K,   1 atm)

  H2(g)           -22.05    -25.15   -3.10  H2
  H2O(g)           -1.50      0.00    1.50  H2O
  O2(g)           -39.17    -42.06   -2.89  O2

**For a gas, SI = log10(fugacity). Fugacity = pressure * phi / 1 atm.
  For ideal gases, phi = 1.

------------------
End of simulation.
------------------

-------------------------------------
Reading input data for simulation 89.
-------------------------------------

