WARNING: Database file from DATABASE keyword is used; command line argument ignored.
   Input file: rho_MgCaCl
  Output file: rho_MgCaCl.out
Database file: ../database/Amm.dat

------------------
Reading data base.
------------------

	SOLUTION_MASTER_SPECIES
	SOLUTION_SPECIES
	PHASES
	GAS_BINARY_PARAMETERS
	EXCHANGE_MASTER_SPECIES
	EXCHANGE_SPECIES
	SURFACE_MASTER_SPECIES
	SURFACE_SPECIES
	MEAN_GAMMAS
	RATES
	END
------------------------------------
Reading input data for simulation 1.
------------------------------------

	DATABASE ../database/Amm.dat
	SELECTED_OUTPUT 101
	    file                 rho_MgCaCl_101.sel
	USER_PUNCH 101
	    headings Mu SC
	    start
	10 PUNCH STR_F$(MU, 20, 12)
	20 PUNCH STR_F$(SC, 20, 10)
	    end
	SOLUTION 1
	 pH 7 charge
	SOLUTION 1
	 pH 7 charge
	SELECTED_OUTPUT
	 file rho_MgCaCl.24.prn
	 reset false
	 selected_out true
	USER_GRAPH
	 -active false
	USER_PUNCH
	 10 data 0.096300, 0.197900, 0.273700, 0.379200, 0.473400, 0.563600, 0.630800, 0.734300, 0.834000, 0.160400, 0.292300, 0.459100, 0.597900, 0.747400, 0.870300, 1.035200, 1.163400, 1.307500, 
	 20 dim Mg(18)
	 22 restore 10
	 30 read Mg(1), Mg(2), Mg(3), Mg(4), Mg(5), Mg(6), Mg(7), Mg(8), Mg(9), Mg(10), Mg(11), Mg(12), Mg(13), Mg(14), Mg(15), Mg(16), Mg(17), Mg(18), 
	 40 data 0.877700, 0.790600, 0.656800, 0.623300, 0.472500, 0.396000, 0.276700, 0.185700, 0.092000, 1.445100, 1.259100, 1.094600, 0.958700, 0.764800, 0.590700, 0.442900, 0.302500, 0.141100, 
	 50 dim Ca(18)
	 52 restore 40
	 60 read Ca(1), Ca(2), Ca(3), Ca(4), Ca(5), Ca(6), Ca(7), Ca(8), Ca(9), Ca(10), Ca(11), Ca(12), Ca(13), Ca(14), Ca(15), Ca(16), Ca(17), Ca(18), 
	 70 data 1.000000, 1.000000, 1.000000, 1.000000, 1.000000, 1.000000, 1.000000, 1.000000, 1.000000, 1.000000, 1.000000, 1.000000, 1.000000, 1.000000, 1.000000, 1.000000, 1.000000, 1.000000, 
	 80 dim Cl(18)
	 82 restore 70
	 90 read Cl(1), Cl(2), Cl(3), Cl(4), Cl(5), Cl(6), Cl(7), Cl(8), Cl(9), Cl(10), Cl(11), Cl(12), Cl(13), Cl(14), Cl(15), Cl(16), Cl(17), Cl(18), 
	 100 data 1078.379200, 1078.468400, 1073.044100, 1077.574000, 1072.118700, 1072.239600, 1067.334500, 1067.358600, 1066.637500, 1125.868700, 1120.564500, 1119.019300, 1117.835600, 1113.072000, 1107.903000, 1107.461700, 1105.263400, 1102.351700, 
	 110 dim rho_m(18)
	 112 restore 100
	 120 read rho_m(1), rho_m(2), rho_m(3), rho_m(4), rho_m(5), rho_m(6), rho_m(7), rho_m(8), rho_m(9), rho_m(10), rho_m(11), rho_m(12), rho_m(13), rho_m(14), rho_m(15), rho_m(16), rho_m(17), rho_m(18), 
	800 for i = 1 to 18
	810   punch 'SOLUTION '+ str$(i),  EOL$
	820   punch ' -temp 24.000000 ', EOL$
	822   punch ' -pressure 5.900000 ', EOL$
	830   punch ' Mg ', Mg(i) * 1e3,  EOL$
	831   punch ' Ca ', Ca(i) * 1e3,  EOL$
	832   punch ' Cl 100 charge ' + EOL$
	850   punch 'USER_GRAPH' + EOL$
	852   if i = 1 then punch '-headings 24.oC__6.bar' + EOL$
	854   punch '-active true' + EOL$
	860   punch '-initial_solutions true' + EOL$
	870   punch '10 plot_xy ', rho_m(i), ', rho * 1e3, line_width = 0, symbol = Square, symbol_size = 4, color = Red' + EOL$
	880   punch 'END' + EOL$
	890 next i
	END
-------------------------------------------
Beginning of initial solution calculations.
-------------------------------------------

Initial solution 1.	

WARNING: USER_PUNCH: Headings count does not match number of calls to PUNCH.

-----------------------------Solution composition------------------------------

	Elements           Molality       Moles

	Pure water     

----------------------------Description of solution----------------------------

                                       pH  =   6.997      Charge balance
                                       pe  =   4.000    
      Specific Conductance (µS/cm,  25°C)  = 0
                          Density (g/cm³)  =   0.99704
                               Volume (L)  =   1.00297
                        Viscosity (mPa s)  =   0.89002
                        Activity of water  =   1.000
                 Ionic strength (mol/kgw)  =   1.006e-07
                       Mass of water (kg)  =   1.000e+00
                 Total alkalinity (eq/kg)  =   3.040e-17
                         Temperature (°C)  =  25.00
                  Electrical balance (eq)  =  -3.040e-17
 Percent error, 100*(Cat-|An|)/(Cat+|An|)  =  -0.00
                               Iterations  =   2
                                  Total H  = 1.110124e+02
                                  Total O  = 5.550622e+01

----------------------------Distribution of species----------------------------

                                               Log       Log       Log    mole V
   Species          Molality    Activity  Molality  Activity     Gamma   cm³/mol

   OH-             1.006e-07   1.006e-07    -6.997    -6.997    -0.000     -4.14
   H+              1.006e-07   1.006e-07    -6.997    -6.997    -0.000      0.00
   H2O             5.551e+01   1.000e+00     1.744    -0.000     0.000     18.07
H(0)          1.433e-25
   H2              7.166e-26   7.166e-26   -25.145   -25.145     0.000     14.99
O(0)          0.000e+00
   O2              0.000e+00   0.000e+00   -42.073   -42.073     0.000     30.40

------------------------------Saturation indices-------------------------------

  Phase               SI** log IAP   log K(298 K,   1 atm)

  H2(g)           -22.05    -25.14   -3.10  H2
  H2O(g)           -1.50     -0.00    1.50  H2O
  O2(g)           -39.18    -42.07   -2.89  O2

**For a gas, SI = log10(fugacity). Fugacity = pressure * phi / 1 atm.
  For ideal gases, phi = 1.

------------------
End of simulation.
------------------

------------------------------------
Reading input data for simulation 2.
------------------------------------

	PRINT
	 selected_output false
	 echo_input false

	Reading data from rho_MgCaCl.24.prn ...
-------------------------------------------
Beginning of initial solution calculations.
-------------------------------------------

Initial solution 1.	

-----------------------------Solution composition------------------------------

	Elements           Molality       Moles

	Ca                8.777e-01   8.777e-01
	Cl                1.948e+00   1.948e+00  Charge balance
	Mg                9.630e-02   9.630e-02

----------------------------Description of solution----------------------------

                                       pH  =   7.000    
                                       pe  =   4.000    
      Specific Conductance (µS/cm,  24°C)  = 125650
                          Density (g/cm³)  =   1.07958
                               Volume (L)  =   1.02501
                        Viscosity (mPa s)  =   1.22102
                        Activity of water  =   0.950
                 Ionic strength (mol/kgw)  =   2.922e+00
                       Mass of water (kg)  =   1.000e+00
                 Total alkalinity (eq/kg)  =   2.942e-06
                         Temperature (°C)  =  24.00
                           Pressure (atm)  =  5.90
                  Electrical balance (eq)  =   1.079e-14
 Percent error, 100*(Cat-|An|)/(Cat+|An|)  =   0.00
                               Iterations  =   6
                                  Total H  = 1.110124e+02
                                  Total O  = 5.550622e+01

----------------------------Distribution of species----------------------------

                                               Log       Log       Log    mole V
   Species          Molality    Activity  Molality  Activity     Gamma   cm³/mol

   OH-             1.757e-07   8.940e-08    -6.755    -7.049    -0.294      0.62
   H+              1.393e-07   1.000e-07    -6.856    -7.000    -0.144      0.00
   H2O             5.551e+01   9.503e-01     1.744    -0.022     0.000     18.06
Ca            8.777e-01
   Ca+2            8.777e-01   3.244e-01    -0.057    -0.489    -0.432    -15.52
   CaOH+           3.838e-07   5.118e-07    -6.416    -6.291     0.125     (0)  
Cl            1.948e+00
   Cl-             1.948e+00   1.129e+00     0.290     0.053    -0.237     19.50
   HCl             2.233e-09   3.914e-08    -8.651    -7.407     1.244     20.29
H(0)          7.035e-26
   H2              3.517e-26   7.129e-26   -25.454   -25.147     0.307     14.92
Mg            9.630e-02
   Mg+2            9.630e-02   5.204e-02    -1.016    -1.284    -0.267    -19.10
   MgOH+           2.524e-06   1.640e-06    -5.598    -5.785    -0.187     (0)  
O(0)          0.000e+00
   O2              0.000e+00   0.000e+00   -42.740   -42.448     0.292     30.31

------------------------------Saturation indices-------------------------------

  Phase               SI** log IAP   log K(297 K,   6 atm)

  H2(g)           -22.05    -25.15   -3.10  H2
  H2O(g)           -1.55     -0.02    1.53  H2O
  O2(g)           -39.56    -42.45   -2.89  O2

**For a gas, SI = log10(fugacity). Fugacity = pressure * phi / 1 atm.
  For ideal gases, phi = 1.

------------------
End of simulation.
------------------

------------------------------------
Reading input data for simulation 3.
------------------------------------

-------------------------------------------
Beginning of initial solution calculations.
-------------------------------------------

Initial solution 2.	

-----------------------------Solution composition------------------------------

	Elements           Molality       Moles

	Ca                7.906e-01   7.906e-01
	Cl                1.977e+00   1.977e+00  Charge balance
	Mg                1.979e-01   1.979e-01

----------------------------Description of solution----------------------------

                                       pH  =   7.000    
                                       pe  =   4.000    
      Specific Conductance (µS/cm,  24°C)  = 125282
                          Density (g/cm³)  =   1.07957
                               Volume (L)  =   1.02503
                        Viscosity (mPa s)  =   1.23711
                        Activity of water  =   0.950
                 Ionic strength (mol/kgw)  =   2.965e+00
                       Mass of water (kg)  =   1.000e+00
                 Total alkalinity (eq/kg)  =   5.651e-06
                         Temperature (°C)  =  24.00
                           Pressure (atm)  =  5.90
                  Electrical balance (eq)  =   1.027e-14
 Percent error, 100*(Cat-|An|)/(Cat+|An|)  =   0.00
                               Iterations  =   6
                                  Total H  = 1.110124e+02
                                  Total O  = 5.550622e+01

----------------------------Distribution of species----------------------------

                                               Log       Log       Log    mole V
   Species          Molality    Activity  Molality  Activity     Gamma   cm³/mol

   OH-             1.759e-07   8.933e-08    -6.755    -7.049    -0.294      0.68
   H+              1.393e-07   1.000e-07    -6.856    -7.000    -0.144      0.00
   H2O             5.551e+01   9.496e-01     1.744    -0.022     0.000     18.06
Ca            7.906e-01
   Ca+2            7.906e-01   2.958e-01    -0.102    -0.529    -0.427    -15.51
   CaOH+           3.451e-07   4.665e-07    -6.462    -6.331     0.131     (0)  
Cl            1.977e+00
   Cl-             1.977e+00   1.146e+00     0.296     0.059    -0.237     19.51
   HCl             2.172e-09   3.972e-08    -8.663    -7.401     1.262     20.29
H(0)          6.961e-26
   H2              3.481e-26   7.129e-26   -25.458   -25.147     0.311     14.92
Mg            1.979e-01
   Mg+2            1.979e-01   1.087e-01    -0.704    -0.964    -0.260    -19.08
   MgOH+           5.272e-06   3.423e-06    -5.278    -5.466    -0.187     (0)  
O(0)          0.000e+00
   O2              0.000e+00   0.000e+00   -42.745   -42.449     0.297     30.31

------------------------------Saturation indices-------------------------------

  Phase               SI** log IAP   log K(297 K,   6 atm)

  H2(g)           -22.05    -25.15   -3.10  H2
  H2O(g)           -1.55     -0.02    1.53  H2O
  O2(g)           -39.56    -42.45   -2.89  O2

**For a gas, SI = log10(fugacity). Fugacity = pressure * phi / 1 atm.
  For ideal gases, phi = 1.

------------------
End of simulation.
------------------

------------------------------------
Reading input data for simulation 4.
------------------------------------

-------------------------------------------
Beginning of initial solution calculations.
-------------------------------------------

Initial solution 3.	

-----------------------------Solution composition------------------------------

	Elements           Molality       Moles

	Ca                6.568e-01   6.568e-01
	Cl                1.861e+00   1.861e+00  Charge balance
	Mg                2.737e-01   2.737e-01

----------------------------Description of solution----------------------------

                                       pH  =   7.000    
                                       pe  =   4.000    
      Specific Conductance (µS/cm,  24°C)  = 118660
                          Density (g/cm³)  =   1.07399
                               Volume (L)  =   1.02324
                        Viscosity (mPa s)  =   1.22737
                        Activity of water  =   0.953
                 Ionic strength (mol/kgw)  =   2.791e+00
                       Mass of water (kg)  =   1.000e+00
                 Total alkalinity (eq/kg)  =   7.152e-06
                         Temperature (°C)  =  24.00
                           Pressure (atm)  =  5.90
                  Electrical balance (eq)  =   1.026e-14
 Percent error, 100*(Cat-|An|)/(Cat+|An|)  =   0.00
                               Iterations  =   6
                                  Total H  = 1.110124e+02
                                  Total O  = 5.550622e+01

----------------------------Distribution of species----------------------------

                                               Log       Log       Log    mole V
   Species          Molality    Activity  Molality  Activity     Gamma   cm³/mol

   OH-             1.752e-07   8.962e-08    -6.756    -7.048    -0.291      0.45
   H+              1.391e-07   1.000e-07    -6.857    -7.000    -0.143      0.00
   H2O             5.551e+01   9.525e-01     1.744    -0.021     0.000     18.06
Ca            6.568e-01
   Ca+2            6.568e-01   2.339e-01    -0.183    -0.631    -0.448    -15.58
   CaOH+           2.886e-07   3.700e-07    -6.540    -6.432     0.108     (0)  
Cl            1.861e+00
   Cl-             1.861e+00   1.079e+00     0.270     0.033    -0.237     19.47
   HCl             2.424e-09   3.738e-08    -8.615    -7.427     1.188     20.29
H(0)          7.260e-26
   H2              3.630e-26   7.129e-26   -25.440   -25.147     0.293     14.92
Mg            2.737e-01
   Mg+2            2.737e-01   1.408e-01    -0.563    -0.851    -0.289    -19.16
   MgOH+           6.830e-06   4.448e-06    -5.166    -5.352    -0.186     (0)  
O(0)          0.000e+00
   O2              0.000e+00   0.000e+00   -42.725   -42.446     0.279     30.31

------------------------------Saturation indices-------------------------------

  Phase               SI** log IAP   log K(297 K,   6 atm)

  H2(g)           -22.05    -25.15   -3.10  H2
  H2O(g)           -1.55     -0.02    1.53  H2O
  O2(g)           -39.56    -42.45   -2.89  O2

**For a gas, SI = log10(fugacity). Fugacity = pressure * phi / 1 atm.
  For ideal gases, phi = 1.

------------------
End of simulation.
------------------

------------------------------------
Reading input data for simulation 5.
------------------------------------

-------------------------------------------
Beginning of initial solution calculations.
-------------------------------------------

Initial solution 4.	

-----------------------------Solution composition------------------------------

	Elements           Molality       Moles

	Ca                6.233e-01   6.233e-01
	Cl                2.005e+00   2.005e+00  Charge balance
	Mg                3.792e-01   3.792e-01

----------------------------Description of solution----------------------------

                                       pH  =   7.000    
                                       pe  =   4.000    
      Specific Conductance (µS/cm,  24°C)  = 123534
                          Density (g/cm³)  =   1.07859
                               Volume (L)  =   1.02475
                        Viscosity (mPa s)  =   1.26282
                        Activity of water  =   0.949
                 Ionic strength (mol/kgw)  =   3.007e+00
                       Mass of water (kg)  =   1.000e+00
                 Total alkalinity (eq/kg)  =   1.057e-05
                         Temperature (°C)  =  24.00
                           Pressure (atm)  =  5.90
                  Electrical balance (eq)  =   1.209e-14
 Percent error, 100*(Cat-|An|)/(Cat+|An|)  =   0.00
                               Iterations  =   6
                                  Total H  = 1.110124e+02
                                  Total O  = 5.550623e+01

----------------------------Distribution of species----------------------------

                                               Log       Log       Log    mole V
   Species          Molality    Activity  Molality  Activity     Gamma   cm³/mol

   OH-             1.761e-07   8.927e-08    -6.754    -7.049    -0.295      0.74
   H+              1.394e-07   1.000e-07    -6.856    -7.000    -0.144      0.00
   H2O             5.551e+01   9.489e-01     1.744    -0.023     0.000     18.06
Ca            6.233e-01
   Ca+2            6.233e-01   2.361e-01    -0.205    -0.627    -0.422    -15.49
   CaOH+           2.717e-07   3.719e-07    -6.566    -6.430     0.136     (0)  
Cl            2.005e+00
   Cl-             2.005e+00   1.163e+00     0.302     0.065    -0.237     19.52
   HCl             2.115e-09   4.029e-08    -8.675    -7.395     1.280     20.29
H(0)          6.891e-26
   H2              3.445e-26   7.129e-26   -25.463   -25.147     0.316     14.92
Mg            3.792e-01
   Mg+2            3.792e-01   2.117e-01    -0.421    -0.674    -0.253    -19.06
   MgOH+           1.026e-05   6.660e-06    -4.989    -5.177    -0.188     (0)  
O(0)          0.000e+00
   O2              0.000e+00   0.000e+00   -42.750   -42.449     0.301     30.31

------------------------------Saturation indices-------------------------------

  Phase               SI** log IAP   log K(297 K,   6 atm)

  H2(g)           -22.05    -25.15   -3.10  H2
  H2O(g)           -1.55     -0.02    1.53  H2O
  O2(g)           -39.56    -42.45   -2.89  O2

**For a gas, SI = log10(fugacity). Fugacity = pressure * phi / 1 atm.
  For ideal gases, phi = 1.

------------------
End of simulation.
------------------

------------------------------------
Reading input data for simulation 6.
------------------------------------

-------------------------------------------
Beginning of initial solution calculations.
-------------------------------------------

Initial solution 5.	

-----------------------------Solution composition------------------------------

	Elements           Molality       Moles

	Ca                4.725e-01   4.725e-01
	Cl                1.892e+00   1.892e+00  Charge balance
	Mg                4.734e-01   4.734e-01

----------------------------Description of solution----------------------------

                                       pH  =   7.000    
                                       pe  =   4.000    
      Specific Conductance (µS/cm,  24°C)  = 116789
                          Density (g/cm³)  =   1.07292
                               Volume (L)  =   1.02293
                        Viscosity (mPa s)  =   1.25640
                        Activity of water  =   0.952
                 Ionic strength (mol/kgw)  =   2.838e+00
                       Mass of water (kg)  =   1.000e+00
                 Total alkalinity (eq/kg)  =   1.226e-05
                         Temperature (°C)  =  24.00
                           Pressure (atm)  =  5.90
                  Electrical balance (eq)  =   1.067e-14
 Percent error, 100*(Cat-|An|)/(Cat+|An|)  =   0.00
                               Iterations  =   6
                                  Total H  = 1.110124e+02
                                  Total O  = 5.550623e+01

----------------------------Distribution of species----------------------------

                                               Log       Log       Log    mole V
   Species          Molality    Activity  Molality  Activity     Gamma   cm³/mol

   OH-             1.754e-07   8.954e-08    -6.756    -7.048    -0.292      0.51
   H+              1.391e-07   1.000e-07    -6.857    -7.000    -0.143      0.00
   H2O             5.551e+01   9.518e-01     1.744    -0.021     0.000     18.06
Ca            4.725e-01
   Ca+2            4.725e-01   1.705e-01    -0.326    -0.768    -0.443    -15.56
   CaOH+           2.073e-07   2.694e-07    -6.683    -6.570     0.114     (0)  
Cl            1.892e+00
   Cl-             1.892e+00   1.097e+00     0.277     0.040    -0.237     19.48
   HCl             2.356e-09   3.800e-08    -8.628    -7.420     1.208     20.29
H(0)          7.180e-26
   H2              3.590e-26   7.129e-26   -25.445   -25.147     0.298     14.92
Mg            4.734e-01
   Mg+2            4.734e-01   2.478e-01    -0.325    -0.606    -0.281    -19.14
   MgOH+           1.202e-05   7.821e-06    -4.920    -5.107    -0.187     (0)  
O(0)          0.000e+00
   O2              0.000e+00   0.000e+00   -42.730   -42.447     0.284     30.31

------------------------------Saturation indices-------------------------------

  Phase               SI** log IAP   log K(297 K,   6 atm)

  H2(g)           -22.05    -25.15   -3.10  H2
  H2O(g)           -1.55     -0.02    1.53  H2O
  O2(g)           -39.56    -42.45   -2.89  O2

**For a gas, SI = log10(fugacity). Fugacity = pressure * phi / 1 atm.
  For ideal gases, phi = 1.

------------------
End of simulation.
------------------

------------------------------------
Reading input data for simulation 7.
------------------------------------

-------------------------------------------
Beginning of initial solution calculations.
-------------------------------------------

Initial solution 6.	

-----------------------------Solution composition------------------------------

	Elements           Molality       Moles

	Ca                3.960e-01   3.960e-01
	Cl                1.919e+00   1.919e+00  Charge balance
	Mg                5.636e-01   5.636e-01

----------------------------Description of solution----------------------------

                                       pH  =   7.000    
                                       pe  =   4.000    
      Specific Conductance (µS/cm,  24°C)  = 116568
                          Density (g/cm³)  =   1.07298
                               Volume (L)  =   1.02296
                        Viscosity (mPa s)  =   1.27203
                        Activity of water  =   0.951
                 Ionic strength (mol/kgw)  =   2.879e+00
                       Mass of water (kg)  =   1.000e+00
                 Total alkalinity (eq/kg)  =   1.474e-05
                         Temperature (°C)  =  24.00
                           Pressure (atm)  =  5.90
                  Electrical balance (eq)  =   1.148e-14
 Percent error, 100*(Cat-|An|)/(Cat+|An|)  =   0.00
                               Iterations  =   6
                                  Total H  = 1.110124e+02
                                  Total O  = 5.550623e+01

----------------------------Distribution of species----------------------------

                                               Log       Log       Log    mole V
   Species          Molality    Activity  Molality  Activity     Gamma   cm³/mol

   OH-             1.756e-07   8.947e-08    -6.756    -7.048    -0.293      0.56
   H+              1.392e-07   1.000e-07    -6.856    -7.000    -0.144      0.00
   H2O             5.551e+01   9.511e-01     1.744    -0.022     0.000     18.06
Ca            3.960e-01
   Ca+2            3.960e-01   1.446e-01    -0.402    -0.840    -0.438    -15.54
   CaOH+           1.734e-07   2.283e-07    -6.761    -6.642     0.119     (0)  
Cl            1.919e+00
   Cl-             1.919e+00   1.112e+00     0.283     0.046    -0.237     19.49
   HCl             2.295e-09   3.855e-08    -8.639    -7.414     1.225     20.29
H(0)          7.109e-26
   H2              3.554e-26   7.129e-26   -25.449   -25.147     0.302     14.92
Mg            5.636e-01
   Mg+2            5.636e-01   2.997e-01    -0.249    -0.523    -0.274    -19.12
   MgOH+           1.453e-05   9.449e-06    -4.838    -5.025    -0.187     (0)  
O(0)          0.000e+00
   O2              0.000e+00   0.000e+00   -42.735   -42.447     0.288     30.31

------------------------------Saturation indices-------------------------------

  Phase               SI** log IAP   log K(297 K,   6 atm)

  H2(g)           -22.05    -25.15   -3.10  H2
  H2O(g)           -1.55     -0.02    1.53  H2O
  O2(g)           -39.56    -42.45   -2.89  O2

**For a gas, SI = log10(fugacity). Fugacity = pressure * phi / 1 atm.
  For ideal gases, phi = 1.

------------------
End of simulation.
------------------

------------------------------------
Reading input data for simulation 8.
------------------------------------

-------------------------------------------
Beginning of initial solution calculations.
-------------------------------------------

Initial solution 7.	

-----------------------------Solution composition------------------------------

	Elements           Molality       Moles

	Ca                2.767e-01   2.767e-01
	Cl                1.815e+00   1.815e+00  Charge balance
	Mg                6.308e-01   6.308e-01

----------------------------Description of solution----------------------------

                                       pH  =   7.000    
                                       pe  =   4.000    
      Specific Conductance (µS/cm,  24°C)  = 110579
                          Density (g/cm³)  =   1.06795
                               Volume (L)  =   1.02137
                        Viscosity (mPa s)  =   1.26447
                        Activity of water  =   0.954
                 Ionic strength (mol/kgw)  =   2.722e+00
                       Mass of water (kg)  =   1.000e+00
                 Total alkalinity (eq/kg)  =   1.550e-05
                         Temperature (°C)  =  24.00
                           Pressure (atm)  =  5.90
                  Electrical balance (eq)  =   9.570e-15
 Percent error, 100*(Cat-|An|)/(Cat+|An|)  =   0.00
                               Iterations  =   6
                                  Total H  = 1.110124e+02
                                  Total O  = 5.550623e+01

----------------------------Distribution of species----------------------------

                                               Log       Log       Log    mole V
   Species          Molality    Activity  Molality  Activity     Gamma   cm³/mol

   OH-             1.750e-07   8.973e-08    -6.757    -7.047    -0.290      0.35
   H+              1.390e-07   1.000e-07    -6.857    -7.000    -0.143      0.00
   H2O             5.551e+01   9.537e-01     1.744    -0.021     0.000     18.06
Ca            2.767e-01
   Ca+2            2.767e-01   9.668e-02    -0.558    -1.015    -0.457    -15.61
   CaOH+           1.219e-07   1.531e-07    -6.914    -6.815     0.099     (0)  
Cl            1.815e+00
   Cl-             1.815e+00   1.052e+00     0.259     0.022    -0.237     19.45
   HCl             2.530e-09   3.646e-08    -8.597    -7.438     1.159     20.29
H(0)          7.383e-26
   H2              3.691e-26   7.129e-26   -25.433   -25.147     0.286     14.92
Mg            6.308e-01
   Mg+2            6.308e-01   3.163e-01    -0.200    -0.500    -0.300    -19.20
   MgOH+           1.534e-05   1.000e-05    -4.814    -5.000    -0.186     (0)  
O(0)          0.000e+00
   O2              0.000e+00   0.000e+00   -42.717   -42.445     0.272     30.31

------------------------------Saturation indices-------------------------------

  Phase               SI** log IAP   log K(297 K,   6 atm)

  H2(g)           -22.05    -25.15   -3.10  H2
  H2O(g)           -1.55     -0.02    1.53  H2O
  O2(g)           -39.56    -42.44   -2.89  O2

**For a gas, SI = log10(fugacity). Fugacity = pressure * phi / 1 atm.
  For ideal gases, phi = 1.

------------------
End of simulation.
------------------

------------------------------------
Reading input data for simulation 9.
------------------------------------

-------------------------------------------
Beginning of initial solution calculations.
-------------------------------------------

Initial solution 8.	

-----------------------------Solution composition------------------------------

	Elements           Molality       Moles

	Ca                1.857e-01   1.857e-01
	Cl                1.840e+00   1.840e+00  Charge balance
	Mg                7.343e-01   7.343e-01

----------------------------Description of solution----------------------------

                                       pH  =   7.000    
                                       pe  =   4.000    
      Specific Conductance (µS/cm,  24°C)  = 110066
                          Density (g/cm³)  =   1.06776
                               Volume (L)  =   1.02132
                        Viscosity (mPa s)  =   1.28200
                        Activity of water  =   0.953
                 Ionic strength (mol/kgw)  =   2.760e+00
                       Mass of water (kg)  =   1.000e+00
                 Total alkalinity (eq/kg)  =   1.823e-05
                         Temperature (°C)  =  24.00
                           Pressure (atm)  =  5.90
                  Electrical balance (eq)  =   9.615e-15
 Percent error, 100*(Cat-|An|)/(Cat+|An|)  =   0.00
                               Iterations  =   6
                                  Total H  = 1.110125e+02
                                  Total O  = 5.550624e+01

----------------------------Distribution of species----------------------------

                                               Log       Log       Log    mole V
   Species          Molality    Activity  Molality  Activity     Gamma   cm³/mol

   OH-             1.751e-07   8.967e-08    -6.757    -7.047    -0.291      0.40
   H+              1.390e-07   1.000e-07    -6.857    -7.000    -0.143      0.00
   H2O             5.551e+01   9.531e-01     1.744    -0.021     0.000     18.06
Ca            1.857e-01
   Ca+2            1.857e-01   6.556e-02    -0.731    -1.183    -0.452    -15.59
   CaOH+           8.172e-08   1.038e-07    -7.088    -6.984     0.104     (0)  
Cl            1.840e+00
   Cl-             1.840e+00   1.066e+00     0.265     0.028    -0.237     19.46
   HCl             2.472e-09   3.696e-08    -8.607    -7.432     1.175     20.29
H(0)          7.316e-26
   H2              3.658e-26   7.129e-26   -25.437   -25.147     0.290     14.92
Mg            7.343e-01
   Mg+2            7.343e-01   3.734e-01    -0.134    -0.428    -0.294    -19.18
   MgOH+           1.811e-05   1.180e-05    -4.742    -4.928    -0.186     (0)  
O(0)          0.000e+00
   O2              0.000e+00   0.000e+00   -42.721   -42.445     0.276     30.31

------------------------------Saturation indices-------------------------------

  Phase               SI** log IAP   log K(297 K,   6 atm)

  H2(g)           -22.05    -25.15   -3.10  H2
  H2O(g)           -1.55     -0.02    1.53  H2O
  O2(g)           -39.56    -42.45   -2.89  O2

**For a gas, SI = log10(fugacity). Fugacity = pressure * phi / 1 atm.
  For ideal gases, phi = 1.

------------------
End of simulation.
------------------

-------------------------------------
Reading input data for simulation 10.
-------------------------------------

-------------------------------------------
Beginning of initial solution calculations.
-------------------------------------------

Initial solution 9.	

-----------------------------Solution composition------------------------------

	Elements           Molality       Moles

	Ca                9.200e-02   9.200e-02
	Cl                1.852e+00   1.852e+00  Charge balance
	Mg                8.340e-01   8.340e-01

----------------------------Description of solution----------------------------

                                       pH  =   7.000    
                                       pe  =   4.000    
      Specific Conductance (µS/cm,  24°C)  = 108997
                          Density (g/cm³)  =   1.06709
                               Volume (L)  =   1.02112
                        Viscosity (mPa s)  =   1.29742
                        Activity of water  =   0.953
                 Ionic strength (mol/kgw)  =   2.778e+00
                       Mass of water (kg)  =   1.000e+00
                 Total alkalinity (eq/kg)  =   2.078e-05
                         Temperature (°C)  =  24.00
                           Pressure (atm)  =  5.90
                  Electrical balance (eq)  =   1.073e-14
 Percent error, 100*(Cat-|An|)/(Cat+|An|)  =   0.00
                               Iterations  =   6
                                  Total H  = 1.110125e+02
                                  Total O  = 5.550624e+01

----------------------------Distribution of species----------------------------

                                               Log       Log       Log    mole V
   Species          Molality    Activity  Molality  Activity     Gamma   cm³/mol

   OH-             1.752e-07   8.964e-08    -6.756    -7.048    -0.291      0.43
   H+              1.391e-07   1.000e-07    -6.857    -7.000    -0.143      0.00
   H2O             5.551e+01   9.528e-01     1.744    -0.021     0.000     18.06
Ca            9.200e-02
   Ca+2            9.200e-02   3.265e-02    -1.036    -1.486    -0.450    -15.59
   CaOH+           4.045e-08   5.165e-08    -7.393    -7.287     0.106     (0)  
Cl            1.852e+00
   Cl-             1.852e+00   1.073e+00     0.268     0.031    -0.237     19.47
   HCl             2.445e-09   3.720e-08    -8.612    -7.429     1.182     20.29
H(0)          7.284e-26
   H2              3.642e-26   7.129e-26   -25.439   -25.147     0.292     14.92
Mg            8.340e-01
   Mg+2            8.340e-01   4.270e-01    -0.079    -0.370    -0.291    -19.17
   MgOH+           2.071e-05   1.349e-05    -4.684    -4.870    -0.186     (0)  
O(0)          0.000e+00
   O2              0.000e+00   0.000e+00   -42.723   -42.446     0.278     30.31

------------------------------Saturation indices-------------------------------

  Phase               SI** log IAP   log K(297 K,   6 atm)

  H2(g)           -22.05    -25.15   -3.10  H2
  H2O(g)           -1.55     -0.02    1.53  H2O
  O2(g)           -39.56    -42.45   -2.89  O2

**For a gas, SI = log10(fugacity). Fugacity = pressure * phi / 1 atm.
  For ideal gases, phi = 1.

------------------
End of simulation.
------------------

-------------------------------------
Reading input data for simulation 11.
-------------------------------------

-------------------------------------------
Beginning of initial solution calculations.
-------------------------------------------

Initial solution 10.	

-----------------------------Solution composition------------------------------

	Elements           Molality       Moles

	Ca                1.445e+00   1.445e+00
	Cl                3.211e+00   3.211e+00  Charge balance
	Mg                1.604e-01   1.604e-01

----------------------------Description of solution----------------------------

                                       pH  =   7.000    
                                       pe  =   4.000    
      Specific Conductance (µS/cm,  24°C)  = 170671
                          Density (g/cm³)  =   1.12820
                               Volume (L)  =   1.04207
                        Viscosity (mPa s)  =   1.45719
                        Activity of water  =   0.918
                 Ionic strength (mol/kgw)  =   4.816e+00
                       Mass of water (kg)  =   1.000e+00
                 Total alkalinity (eq/kg)  =   9.518e-06
                         Temperature (°C)  =  24.00
                           Pressure (atm)  =  5.90
                  Electrical balance (eq)  =  -1.931e-15
 Percent error, 100*(Cat-|An|)/(Cat+|An|)  =  -0.00
                               Iterations  =   7
                                  Total H  = 1.110124e+02
                                  Total O  = 5.550623e+01

----------------------------Distribution of species----------------------------

                                               Log       Log       Log    mole V
   Species          Molality    Activity  Molality  Activity     Gamma   cm³/mol

   OH-             1.792e-07   8.633e-08    -6.747    -7.064    -0.317      3.14
   H+              1.410e-07   1.000e-07    -6.851    -7.000    -0.149      0.00
   H2O             5.551e+01   9.181e-01     1.744    -0.037     0.000     18.06
Ca            1.445e+00
   Ca+2            1.445e+00   9.634e-01     0.160    -0.016    -0.176    -14.76
   CaOH+           6.041e-07   1.469e-06    -6.219    -5.833     0.386     (0)  
Cl            3.211e+00
   Cl-             3.211e+00   1.903e+00     0.507     0.280    -0.227     19.88
   HCl             5.881e-10   6.597e-08    -9.231    -7.181     2.050     20.29
H(0)          4.450e-26
   H2              2.225e-26   7.129e-26   -25.653   -25.147     0.506     14.92
Mg            1.604e-01
   Mg+2            1.604e-01   1.854e-01    -0.795    -0.732     0.063    -18.24
   MgOH+           8.876e-06   5.645e-06    -5.052    -5.248    -0.197     (0)  
O(0)          0.000e+00
   O2              0.000e+00   0.000e+00   -42.959   -42.478     0.482     30.31

------------------------------Saturation indices-------------------------------

  Phase               SI** log IAP   log K(297 K,   6 atm)

  H2(g)           -22.05    -25.15   -3.10  H2
  H2O(g)           -1.56     -0.04    1.53  H2O
  O2(g)           -39.59    -42.48   -2.89  O2

**For a gas, SI = log10(fugacity). Fugacity = pressure * phi / 1 atm.
  For ideal gases, phi = 1.

------------------
End of simulation.
------------------

-------------------------------------
Reading input data for simulation 12.
-------------------------------------

-------------------------------------------
Beginning of initial solution calculations.
-------------------------------------------

Initial solution 11.	

-----------------------------Solution composition------------------------------

	Elements           Molality       Moles

	Ca                1.259e+00   1.259e+00
	Cl                3.103e+00   3.103e+00  Charge balance
	Mg                2.923e-01   2.923e-01

----------------------------Description of solution----------------------------

                                       pH  =   7.000    
                                       pe  =   4.000    
      Specific Conductance (µS/cm,  24°C)  = 165683
                          Density (g/cm³)  =   1.12259
                               Volume (L)  =   1.04007
                        Viscosity (mPa s)  =   1.44776
                        Activity of water  =   0.921
                 Ionic strength (mol/kgw)  =   4.654e+00
                       Mass of water (kg)  =   1.000e+00
                 Total alkalinity (eq/kg)  =   1.571e-05
                         Temperature (°C)  =  24.00
                           Pressure (atm)  =  5.90
                  Electrical balance (eq)  =  -3.682e-08
 Percent error, 100*(Cat-|An|)/(Cat+|An|)  =  -0.00
                               Iterations  =   6
                                  Total H  = 1.110124e+02
                                  Total O  = 5.550623e+01

----------------------------Distribution of species----------------------------

                                               Log       Log       Log    mole V
   Species          Molality    Activity  Molality  Activity     Gamma   cm³/mol

   OH-             1.791e-07   8.659e-08    -6.747    -7.063    -0.316      2.93
   H+              1.409e-07   1.000e-07    -6.851    -7.000    -0.149      0.00
   H2O             5.551e+01   9.209e-01     1.744    -0.036     0.000     18.06
Ca            1.259e+00
   Ca+2            1.259e+00   7.958e-01     0.100    -0.099    -0.199    -14.82
   CaOH+           5.277e-07   1.217e-06    -6.278    -5.915     0.363     (0)  
Cl            3.103e+00
   Cl-             3.103e+00   1.834e+00     0.492     0.263    -0.228     19.85
   HCl             6.643e-10   6.356e-08    -9.178    -7.197     1.981     20.29
H(0)          4.628e-26
   H2              2.314e-26   7.129e-26   -25.636   -25.147     0.489     14.92
Mg            2.923e-01
   Mg+2            2.923e-01   3.158e-01    -0.534    -0.501     0.034    -18.31
   MgOH+           1.514e-05   9.644e-06    -4.820    -5.016    -0.196     (0)  
O(0)          0.000e+00
   O2              0.000e+00   0.000e+00   -42.941   -42.475     0.465     30.31

------------------------------Saturation indices-------------------------------

  Phase               SI** log IAP   log K(297 K,   6 atm)

  H2(g)           -22.05    -25.15   -3.10  H2
  H2O(g)           -1.56     -0.04    1.53  H2O
  O2(g)           -39.59    -42.48   -2.89  O2

**For a gas, SI = log10(fugacity). Fugacity = pressure * phi / 1 atm.
  For ideal gases, phi = 1.

------------------
End of simulation.
------------------

-------------------------------------
Reading input data for simulation 13.
-------------------------------------

-------------------------------------------
Beginning of initial solution calculations.
-------------------------------------------

Initial solution 12.	

-----------------------------Solution composition------------------------------

	Elements           Molality       Moles

	Ca                1.095e+00   1.095e+00
	Cl                3.107e+00   3.107e+00  Charge balance
	Mg                4.591e-01   4.591e-01

----------------------------Description of solution----------------------------

                                       pH  =   7.000    
                                       pe  =   4.000    
      Specific Conductance (µS/cm,  24°C)  = 163290
                          Density (g/cm³)  =   1.12087
                               Volume (L)  =   1.03955
                        Viscosity (mPa s)  =   1.46616
                        Activity of water  =   0.921
                 Ionic strength (mol/kgw)  =   4.661e+00
                       Mass of water (kg)  =   1.000e+00
                 Total alkalinity (eq/kg)  =   2.435e-05
                         Temperature (°C)  =  24.00
                           Pressure (atm)  =  5.90
                  Electrical balance (eq)  =  -3.853e-08
 Percent error, 100*(Cat-|An|)/(Cat+|An|)  =  -0.00
                               Iterations  =   6
                                  Total H  = 1.110125e+02
                                  Total O  = 5.550624e+01

----------------------------Distribution of species----------------------------

                                               Log       Log       Log    mole V
   Species          Molality    Activity  Molality  Activity     Gamma   cm³/mol

   OH-             1.791e-07   8.658e-08    -6.747    -7.063    -0.316      2.94
   H+              1.409e-07   1.000e-07    -6.851    -7.000    -0.149      0.00
   H2O             5.551e+01   9.208e-01     1.744    -0.036     0.000     18.06
Ca            1.095e+00
   Ca+2            1.095e+00   6.934e-01     0.039    -0.159    -0.198    -14.82
   CaOH+           4.587e-07   1.060e-06    -6.338    -5.975     0.364     (0)  
Cl            3.107e+00
   Cl-             3.107e+00   1.837e+00     0.492     0.264    -0.228     19.85
   HCl             6.609e-10   6.366e-08    -9.180    -7.196     1.984     20.29
H(0)          4.620e-26
   H2              2.310e-26   7.129e-26   -25.636   -25.147     0.489     14.92
Mg            4.591e-01
   Mg+2            4.591e-01   4.974e-01    -0.338    -0.303     0.035    -18.31
   MgOH+           2.385e-05   1.519e-05    -4.623    -4.818    -0.196     (0)  
O(0)          0.000e+00
   O2              0.000e+00   0.000e+00   -42.941   -42.475     0.466     30.31

------------------------------Saturation indices-------------------------------

  Phase               SI** log IAP   log K(297 K,   6 atm)

  H2(g)           -22.05    -25.15   -3.10  H2
  H2O(g)           -1.56     -0.04    1.53  H2O
  O2(g)           -39.59    -42.48   -2.89  O2

**For a gas, SI = log10(fugacity). Fugacity = pressure * phi / 1 atm.
  For ideal gases, phi = 1.

------------------
End of simulation.
------------------

-------------------------------------
Reading input data for simulation 14.
-------------------------------------

-------------------------------------------
Beginning of initial solution calculations.
-------------------------------------------

Initial solution 13.	

-----------------------------Solution composition------------------------------

	Elements           Molality       Moles

	Ca                9.587e-01   9.587e-01
	Cl                3.113e+00   3.113e+00  Charge balance
	Mg                5.979e-01   5.979e-01

----------------------------Description of solution----------------------------

                                       pH  =   7.000    
                                       pe  =   4.000    
      Specific Conductance (µS/cm,  24°C)  = 161288
                          Density (g/cm³)  =   1.11950
                               Volume (L)  =   1.03915
                        Viscosity (mPa s)  =   1.48310
                        Activity of water  =   0.921
                 Ionic strength (mol/kgw)  =   4.670e+00
                       Mass of water (kg)  =   1.000e+00
                 Total alkalinity (eq/kg)  =   3.161e-05
                         Temperature (°C)  =  24.00
                           Pressure (atm)  =  5.90
                  Electrical balance (eq)  =  -4.080e-08
 Percent error, 100*(Cat-|An|)/(Cat+|An|)  =  -0.00
                               Iterations  =   6
                                  Total H  = 1.110125e+02
                                  Total O  = 5.550625e+01

----------------------------Distribution of species----------------------------

                                               Log       Log       Log    mole V
   Species          Molality    Activity  Molality  Activity     Gamma   cm³/mol

   OH-             1.791e-07   8.657e-08    -6.747    -7.063    -0.316      2.95
   H+              1.409e-07   1.000e-07    -6.851    -7.000    -0.149      0.00
   H2O             5.551e+01   9.206e-01     1.744    -0.036     0.000     18.06
Ca            9.587e-01
   Ca+2            9.587e-01   6.090e-01    -0.018    -0.215    -0.197    -14.81
   CaOH+           4.017e-07   9.311e-07    -6.396    -6.031     0.365     (0)  
Cl            3.113e+00
   Cl-             3.113e+00   1.841e+00     0.493     0.265    -0.228     19.85
   HCl             6.566e-10   6.379e-08    -9.183    -7.195     1.987     20.29
H(0)          4.610e-26
   H2              2.305e-26   7.129e-26   -25.637   -25.147     0.490     14.92
Mg            5.979e-01
   Mg+2            5.979e-01   6.502e-01    -0.223    -0.187     0.036    -18.30
   MgOH+           3.117e-05   1.985e-05    -4.506    -4.702    -0.196     (0)  
O(0)          0.000e+00
   O2              0.000e+00   0.000e+00   -42.942   -42.475     0.467     30.31

------------------------------Saturation indices-------------------------------

  Phase               SI** log IAP   log K(297 K,   6 atm)

  H2(g)           -22.05    -25.15   -3.10  H2
  H2O(g)           -1.56     -0.04    1.53  H2O
  O2(g)           -39.59    -42.48   -2.89  O2

**For a gas, SI = log10(fugacity). Fugacity = pressure * phi / 1 atm.
  For ideal gases, phi = 1.

------------------
End of simulation.
------------------

-------------------------------------
Reading input data for simulation 15.
-------------------------------------

-------------------------------------------
Beginning of initial solution calculations.
-------------------------------------------

Initial solution 14.	

-----------------------------Solution composition------------------------------

	Elements           Molality       Moles

	Ca                7.648e-01   7.648e-01
	Cl                3.024e+00   3.024e+00  Charge balance
	Mg                7.474e-01   7.474e-01

----------------------------Description of solution----------------------------

                                       pH  =   7.000    
                                       pe  =   4.000    
      Specific Conductance (µS/cm,  24°C)  = 156148
                          Density (g/cm³)  =   1.11440
                               Volume (L)  =   1.03737
                        Viscosity (mPa s)  =   1.48446
                        Activity of water  =   0.923
                 Ionic strength (mol/kgw)  =   4.537e+00
                       Mass of water (kg)  =   1.000e+00
                 Total alkalinity (eq/kg)  =   3.728e-05
                         Temperature (°C)  =  24.00
                           Pressure (atm)  =  5.90
                  Electrical balance (eq)  =  -1.652e-08
 Percent error, 100*(Cat-|An|)/(Cat+|An|)  =  -0.00
                               Iterations  =   6
                                  Total H  = 1.110125e+02
                                  Total O  = 5.550625e+01

----------------------------Distribution of species----------------------------

                                               Log       Log       Log    mole V
   Species          Molality    Activity  Molality  Activity     Gamma   cm³/mol

   OH-             1.790e-07   8.678e-08    -6.747    -7.062    -0.314      2.78
   H+              1.408e-07   1.000e-07    -6.851    -7.000    -0.149      0.00
   H2O             5.551e+01   9.229e-01     1.744    -0.035     0.000     18.06
Ca            7.648e-01
   Ca+2            7.648e-01   4.652e-01    -0.116    -0.332    -0.216    -14.87
   CaOH+           3.211e-07   7.129e-07    -6.493    -6.147     0.346     (0)  
Cl            3.024e+00
   Cl-             3.024e+00   1.784e+00     0.481     0.251    -0.229     19.83
   HCl             7.252e-10   6.183e-08    -9.140    -7.209     1.931     20.29
H(0)          4.761e-26
   H2              2.381e-26   7.129e-26   -25.623   -25.147     0.476     14.92
Mg            7.474e-01
   Mg+2            7.474e-01   7.691e-01    -0.126    -0.114     0.012    -18.36
   MgOH+           3.692e-05   2.354e-05    -4.433    -4.628    -0.196     (0)  
O(0)          0.000e+00
   O2              0.000e+00   0.000e+00   -42.927   -42.473     0.454     30.31

------------------------------Saturation indices-------------------------------

  Phase               SI** log IAP   log K(297 K,   6 atm)

  H2(g)           -22.05    -25.15   -3.10  H2
  H2O(g)           -1.56     -0.03    1.53  H2O
  O2(g)           -39.59    -42.47   -2.89  O2

**For a gas, SI = log10(fugacity). Fugacity = pressure * phi / 1 atm.
  For ideal gases, phi = 1.

------------------
End of simulation.
------------------

-------------------------------------
Reading input data for simulation 16.
-------------------------------------

-------------------------------------------
Beginning of initial solution calculations.
-------------------------------------------

Initial solution 15.	

-----------------------------Solution composition------------------------------

	Elements           Molality       Moles

	Ca                5.907e-01   5.907e-01
	Cl                2.922e+00   2.922e+00  Charge balance
	Mg                8.703e-01   8.703e-01

----------------------------Description of solution----------------------------

                                       pH  =   7.000    
                                       pe  =   4.000    
      Specific Conductance (µS/cm,  24°C)  = 150820
                          Density (g/cm³)  =   1.10906
                               Volume (L)  =   1.03549
                        Viscosity (mPa s)  =   1.48159
                        Activity of water  =   0.925
                 Ionic strength (mol/kgw)  =   4.383e+00
                       Mass of water (kg)  =   1.000e+00
                 Total alkalinity (eq/kg)  =   4.069e-05
                         Temperature (°C)  =  24.00
                           Pressure (atm)  =  5.90
                  Electrical balance (eq)  =  -5.355e-09
 Percent error, 100*(Cat-|An|)/(Cat+|An|)  =  -0.00
                               Iterations  =   6
                                  Total H  = 1.110125e+02
                                  Total O  = 5.550626e+01

----------------------------Distribution of species----------------------------

                                               Log       Log       Log    mole V
   Species          Molality    Activity  Molality  Activity     Gamma   cm³/mol

   OH-             1.789e-07   8.703e-08    -6.747    -7.060    -0.313      2.57
   H+              1.407e-07   1.000e-07    -6.852    -7.000    -0.148      0.00
   H2O             5.551e+01   9.255e-01     1.744    -0.034     0.000     18.06
Ca            5.907e-01
   Ca+2            5.907e-01   3.418e-01    -0.229    -0.466    -0.238    -14.93
   CaOH+           2.487e-07   5.253e-07    -6.604    -6.280     0.325     (0)  
Cl            2.922e+00
   Cl-             2.922e+00   1.719e+00     0.466     0.235    -0.230     19.80
   HCl             8.123e-10   5.958e-08    -9.090    -7.225     1.865     20.29
H(0)          4.942e-26
   H2              2.471e-26   7.129e-26   -25.607   -25.147     0.460     14.92
Mg            8.703e-01
   Mg+2            8.703e-01   8.405e-01    -0.060    -0.075    -0.015    -18.43
   MgOH+           4.041e-05   2.580e-05    -4.394    -4.588    -0.195     (0)  
O(0)          0.000e+00
   O2              0.000e+00   0.000e+00   -42.909   -42.471     0.438     30.31

------------------------------Saturation indices-------------------------------

  Phase               SI** log IAP   log K(297 K,   6 atm)

  H2(g)           -22.05    -25.15   -3.10  H2
  H2O(g)           -1.56     -0.03    1.53  H2O
  O2(g)           -39.58    -42.47   -2.89  O2

**For a gas, SI = log10(fugacity). Fugacity = pressure * phi / 1 atm.
  For ideal gases, phi = 1.

------------------
End of simulation.
------------------

-------------------------------------
Reading input data for simulation 17.
-------------------------------------

-------------------------------------------
Beginning of initial solution calculations.
-------------------------------------------

Initial solution 16.	

-----------------------------Solution composition------------------------------

	Elements           Molality       Moles

	Ca                4.429e-01   4.429e-01
	Cl                2.956e+00   2.956e+00  Charge balance
	Mg                1.035e+00   1.035e+00

----------------------------Description of solution----------------------------

                                       pH  =   7.000    
                                       pe  =   4.000    
      Specific Conductance (µS/cm,  24°C)  = 149120
                          Density (g/cm³)  =   1.10849
                               Volume (L)  =   1.03540
                        Viscosity (mPa s)  =   1.51132
                        Activity of water  =   0.925
                 Ionic strength (mol/kgw)  =   4.434e+00
                       Mass of water (kg)  =   1.000e+00
                 Total alkalinity (eq/kg)  =   4.929e-05
                         Temperature (°C)  =  24.00
                           Pressure (atm)  =  5.90
                  Electrical balance (eq)  =  -7.885e-09
 Percent error, 100*(Cat-|An|)/(Cat+|An|)  =  -0.00
                               Iterations  =   6
                                  Total H  = 1.110125e+02
                                  Total O  = 5.550627e+01

----------------------------Distribution of species----------------------------

                                               Log       Log       Log    mole V
   Species          Molality    Activity  Molality  Activity     Gamma   cm³/mol

   OH-             1.789e-07   8.695e-08    -6.747    -7.061    -0.313      2.64
   H+              1.407e-07   1.000e-07    -6.852    -7.000    -0.148      0.00
   H2O             5.551e+01   9.246e-01     1.744    -0.034     0.000     18.06
Ca            4.429e-01
   Ca+2            4.429e-01   2.606e-01    -0.354    -0.584    -0.230    -14.91
   CaOH+           1.863e-07   4.001e-07    -6.730    -6.398     0.332     (0)  
Cl            2.956e+00
   Cl-             2.956e+00   1.741e+00     0.471     0.241    -0.230     19.81
   HCl             7.822e-10   6.033e-08    -9.107    -7.219     1.887     20.29
H(0)          4.881e-26
   H2              2.440e-26   7.129e-26   -25.613   -25.147     0.466     14.92
Mg            1.035e+00
   Mg+2            1.035e+00   1.021e+00     0.015     0.009    -0.006    -18.41
   MgOH+           4.906e-05   3.131e-05    -4.309    -4.504    -0.195     (0)  
O(0)          0.000e+00
   O2              0.000e+00   0.000e+00   -42.915   -42.472     0.443     30.31

------------------------------Saturation indices-------------------------------

  Phase               SI** log IAP   log K(297 K,   6 atm)

  H2(g)           -22.05    -25.15   -3.10  H2
  H2O(g)           -1.56     -0.03    1.53  H2O
  O2(g)           -39.58    -42.47   -2.89  O2

**For a gas, SI = log10(fugacity). Fugacity = pressure * phi / 1 atm.
  For ideal gases, phi = 1.

------------------
End of simulation.
------------------

-------------------------------------
Reading input data for simulation 18.
-------------------------------------

-------------------------------------------
Beginning of initial solution calculations.
-------------------------------------------

Initial solution 17.	

-----------------------------Solution composition------------------------------

	Elements           Molality       Moles

	Ca                3.025e-01   3.025e-01
	Cl                2.932e+00   2.932e+00  Charge balance
	Mg                1.163e+00   1.163e+00

----------------------------Description of solution----------------------------

                                       pH  =   7.000    
                                       pe  =   4.000    
      Specific Conductance (µS/cm,  24°C)  = 146089
                          Density (g/cm³)  =   1.10607
                               Volume (L)  =   1.03460
                        Viscosity (mPa s)  =   1.52636
                        Activity of water  =   0.925
                 Ionic strength (mol/kgw)  =   4.398e+00
                       Mass of water (kg)  =   1.000e+00
                 Total alkalinity (eq/kg)  =   5.450e-05
                         Temperature (°C)  =  24.00
                           Pressure (atm)  =  5.90
                  Electrical balance (eq)  =  -5.990e-09
 Percent error, 100*(Cat-|An|)/(Cat+|An|)  =  -0.00
                               Iterations  =   6
                                  Total H  = 1.110125e+02
                                  Total O  = 5.550627e+01

----------------------------Distribution of species----------------------------

                                               Log       Log       Log    mole V
   Species          Molality    Activity  Molality  Activity     Gamma   cm³/mol

   OH-             1.789e-07   8.701e-08    -6.747    -7.060    -0.313      2.59
   H+              1.407e-07   1.000e-07    -6.852    -7.000    -0.148      0.00
   H2O             5.551e+01   9.252e-01     1.744    -0.034     0.000     18.06
Ca            3.025e-01
   Ca+2            3.025e-01   1.759e-01    -0.519    -0.755    -0.236    -14.92
   CaOH+           1.273e-07   2.702e-07    -6.895    -6.568     0.327     (0)  
Cl            2.932e+00
   Cl-             2.932e+00   1.725e+00     0.467     0.237    -0.230     19.80
   HCl             8.036e-10   5.979e-08    -9.095    -7.223     1.872     20.29
H(0)          4.924e-26
   H2              2.462e-26   7.129e-26   -25.609   -25.147     0.462     14.92
Mg            1.163e+00
   Mg+2            1.163e+00   1.130e+00     0.066     0.053    -0.012    -18.42
   MgOH+           5.433e-05   3.468e-05    -4.265    -4.460    -0.195     (0)  
O(0)          0.000e+00
   O2              0.000e+00   0.000e+00   -42.911   -42.471     0.440     30.31

------------------------------Saturation indices-------------------------------

  Phase               SI** log IAP   log K(297 K,   6 atm)

  H2(g)           -22.05    -25.15   -3.10  H2
  H2O(g)           -1.56     -0.03    1.53  H2O
  O2(g)           -39.58    -42.47   -2.89  O2

**For a gas, SI = log10(fugacity). Fugacity = pressure * phi / 1 atm.
  For ideal gases, phi = 1.

------------------
End of simulation.
------------------

-------------------------------------
Reading input data for simulation 19.
-------------------------------------

-------------------------------------------
Beginning of initial solution calculations.
-------------------------------------------

Initial solution 18.	

-----------------------------Solution composition------------------------------

	Elements           Molality       Moles

	Ca                1.411e-01   1.411e-01
	Cl                2.897e+00   2.897e+00  Charge balance
	Mg                1.308e+00   1.308e+00

----------------------------Description of solution----------------------------

                                       pH  =   7.000    
                                       pe  =   4.000    
      Specific Conductance (µS/cm,  24°C)  = 142382
                          Density (g/cm³)  =   1.10308
                               Volume (L)  =   1.03361
                        Viscosity (mPa s)  =   1.54356
                        Activity of water  =   0.926
                 Ionic strength (mol/kgw)  =   4.346e+00
                       Mass of water (kg)  =   1.000e+00
                 Total alkalinity (eq/kg)  =   5.990e-05
                         Temperature (°C)  =  24.00
                           Pressure (atm)  =  5.90
                  Electrical balance (eq)  =  -4.016e-09
 Percent error, 100*(Cat-|An|)/(Cat+|An|)  =  -0.00
                               Iterations  =   6
                                  Total H  = 1.110125e+02
                                  Total O  = 5.550628e+01

----------------------------Distribution of species----------------------------

                                               Log       Log       Log    mole V
   Species          Molality    Activity  Molality  Activity     Gamma   cm³/mol

   OH-             1.789e-07   8.709e-08    -6.748    -7.060    -0.313      2.53
   H+              1.407e-07   1.000e-07    -6.852    -7.000    -0.148      0.00
   H2O             5.551e+01   9.261e-01     1.744    -0.033     0.000     18.06
Ca            1.411e-01
   Ca+2            1.411e-01   8.067e-02    -0.850    -1.093    -0.243    -14.94
   CaOH+           5.944e-08   1.241e-07    -7.226    -6.906     0.320     (0)  
Cl            2.897e+00
   Cl-             2.897e+00   1.703e+00     0.462     0.231    -0.231     19.79
   HCl             8.349e-10   5.904e-08    -9.078    -7.229     1.850     20.29
H(0)          4.986e-26
   H2              2.493e-26   7.129e-26   -25.603   -25.147     0.456     14.92
Mg            1.308e+00
   Mg+2            1.307e+00   1.244e+00     0.116     0.095    -0.022    -18.45
   MgOH+           5.980e-05   3.819e-05    -4.223    -4.418    -0.195     (0)  
O(0)          0.000e+00
   O2              0.000e+00   0.000e+00   -42.905   -42.470     0.435     30.31

------------------------------Saturation indices-------------------------------

  Phase               SI** log IAP   log K(297 K,   6 atm)

  H2(g)           -22.05    -25.15   -3.10  H2
  H2O(g)           -1.56     -0.03    1.53  H2O
  O2(g)           -39.58    -42.47   -2.89  O2

**For a gas, SI = log10(fugacity). Fugacity = pressure * phi / 1 atm.
  For ideal gases, phi = 1.

------------------
End of simulation.
------------------

-------------------------------------
Reading input data for simulation 20.
-------------------------------------

------------------
End of simulation.
------------------

-------------------------------------
Reading input data for simulation 21.
-------------------------------------

-------------------------------------------
Beginning of initial solution calculations.
-------------------------------------------

Initial solution 1.	

-----------------------------Solution composition------------------------------

	Elements           Molality       Moles

	Pure water     

----------------------------Description of solution----------------------------

                                       pH  =   7.000    
                                       pe  =   4.000    
      Specific Conductance (µS/cm,  25°C)  = 0
                          Density (g/cm³)  =   0.99704
                               Volume (L)  =   1.00297
                        Viscosity (mPa s)  =   0.89002
                        Activity of water  =   1.000
                 Ionic strength (mol/kgw)  =   1.007e-07
                       Mass of water (kg)  =   1.000e+00
                 Total alkalinity (eq/kg)  =   1.217e-09
                         Temperature (°C)  =  25.00
                  Electrical balance (eq)  =  -1.217e-09
 Percent error, 100*(Cat-|An|)/(Cat+|An|)  =  -0.60
                               Iterations  =   0
                                  Total H  = 1.110124e+02
                                  Total O  = 5.550622e+01

----------------------------Distribution of species----------------------------

                                               Log       Log       Log    mole V
   Species          Molality    Activity  Molality  Activity     Gamma   cm³/mol

   OH-             1.013e-07   1.012e-07    -6.995    -6.995    -0.000     -4.14
   H+              1.001e-07   1.000e-07    -7.000    -7.000    -0.000      0.00
   H2O             5.551e+01   1.000e+00     1.744     0.000     0.000     18.07
H(0)          1.416e-25
   H2              7.079e-26   7.079e-26   -25.150   -25.150     0.000     14.99
O(0)          0.000e+00
   O2              0.000e+00   0.000e+00   -42.063   -42.063     0.000     30.40

------------------------------Saturation indices-------------------------------

  Phase               SI** log IAP   log K(298 K,   1 atm)

  H2(g)           -22.05    -25.15   -3.10  H2
  H2O(g)           -1.50      0.00    1.50  H2O
  O2(g)           -39.17    -42.06   -2.89  O2

**For a gas, SI = log10(fugacity). Fugacity = pressure * phi / 1 atm.
  For ideal gases, phi = 1.

------------------
End of simulation.
------------------

-------------------------------------
Reading input data for simulation 22.
-------------------------------------

-------------------------------------------
Beginning of initial solution calculations.
-------------------------------------------

Initial solution 2.	

-----------------------------Solution composition------------------------------

	Elements           Molality       Moles

	Pure water     

----------------------------Description of solution----------------------------

                                       pH  =   7.000    
                                       pe  =   4.000    
      Specific Conductance (µS/cm,  25°C)  = 0
                          Density (g/cm³)  =   0.99704
                               Volume (L)  =   1.00297
                        Viscosity (mPa s)  =   0.89002
                        Activity of water  =   1.000
                 Ionic strength (mol/kgw)  =   1.007e-07
                       Mass of water (kg)  =   1.000e+00
                 Total alkalinity (eq/kg)  =   1.217e-09
                         Temperature (°C)  =  25.00
                  Electrical balance (eq)  =  -1.217e-09
 Percent error, 100*(Cat-|An|)/(Cat+|An|)  =  -0.60
                               Iterations  =   0
                                  Total H  = 1.110124e+02
                                  Total O  = 5.550622e+01

----------------------------Distribution of species----------------------------

                                               Log       Log       Log    mole V
   Species          Molality    Activity  Molality  Activity     Gamma   cm³/mol

   OH-             1.013e-07   1.012e-07    -6.995    -6.995    -0.000     -4.14
   H+              1.001e-07   1.000e-07    -7.000    -7.000    -0.000      0.00
   H2O             5.551e+01   1.000e+00     1.744     0.000     0.000     18.07
H(0)          1.416e-25
   H2              7.079e-26   7.079e-26   -25.150   -25.150     0.000     14.99
O(0)          0.000e+00
   O2              0.000e+00   0.000e+00   -42.063   -42.063     0.000     30.40

------------------------------Saturation indices-------------------------------

  Phase               SI** log IAP   log K(298 K,   1 atm)

  H2(g)           -22.05    -25.15   -3.10  H2
  H2O(g)           -1.50      0.00    1.50  H2O
  O2(g)           -39.17    -42.06   -2.89  O2

**For a gas, SI = log10(fugacity). Fugacity = pressure * phi / 1 atm.
  For ideal gases, phi = 1.

------------------
End of simulation.
------------------

-------------------------------------
Reading input data for simulation 23.
-------------------------------------

-------------------------------------------
Beginning of initial solution calculations.
-------------------------------------------

Initial solution 1.	

-----------------------------Solution composition------------------------------

	Elements           Molality       Moles

	Pure water     

----------------------------Description of solution----------------------------

                                       pH  =   6.997      Charge balance
                                       pe  =   4.000    
      Specific Conductance (µS/cm,  25°C)  = 0
                          Density (g/cm³)  =   0.99704
                               Volume (L)  =   1.00297
                        Viscosity (mPa s)  =   0.89002
                        Activity of water  =   1.000
                 Ionic strength (mol/kgw)  =   1.006e-07
                       Mass of water (kg)  =   1.000e+00
                 Total alkalinity (eq/kg)  =   3.040e-17
                         Temperature (°C)  =  25.00
                  Electrical balance (eq)  =  -3.040e-17
 Percent error, 100*(Cat-|An|)/(Cat+|An|)  =  -0.00
                               Iterations  =   2
                                  Total H  = 1.110124e+02
                                  Total O  = 5.550622e+01

----------------------------Distribution of species----------------------------

                                               Log       Log       Log    mole V
   Species          Molality    Activity  Molality  Activity     Gamma   cm³/mol

   OH-             1.006e-07   1.006e-07    -6.997    -6.997    -0.000     -4.14
   H+              1.006e-07   1.006e-07    -6.997    -6.997    -0.000      0.00
   H2O             5.551e+01   1.000e+00     1.744    -0.000     0.000     18.07
H(0)          1.433e-25
   H2              7.166e-26   7.166e-26   -25.145   -25.145     0.000     14.99
O(0)          0.000e+00
   O2              0.000e+00   0.000e+00   -42.073   -42.073     0.000     30.40

------------------------------Saturation indices-------------------------------

  Phase               SI** log IAP   log K(298 K,   1 atm)

  H2(g)           -22.05    -25.14   -3.10  H2
  H2O(g)           -1.50     -0.00    1.50  H2O
  O2(g)           -39.18    -42.07   -2.89  O2

**For a gas, SI = log10(fugacity). Fugacity = pressure * phi / 1 atm.
  For ideal gases, phi = 1.

------------------
End of simulation.
------------------

-------------------------------------
Reading input data for simulation 24.
-------------------------------------


	Reading data from rho_MgCaCl.49.prn ...
-------------------------------------------
Beginning of initial solution calculations.
-------------------------------------------

Initial solution 1.	

-----------------------------Solution composition------------------------------

	Elements           Molality       Moles

	Ca                8.777e-01   8.777e-01
	Cl                1.948e+00   1.948e+00  Charge balance
	Mg                9.630e-02   9.630e-02

----------------------------Description of solution----------------------------

                                       pH  =   7.000    
                                       pe  =   4.000    
      Specific Conductance (µS/cm,  50°C)  = 189235
                          Density (g/cm³)  =   1.06874
                               Volume (L)  =   1.03540
                        Viscosity (mPa s)  =   0.75783
                        Activity of water  =   0.950
                 Ionic strength (mol/kgw)  =   2.922e+00
                       Mass of water (kg)  =   1.000e+00
                 Total alkalinity (eq/kg)  =   2.149e-05
                         Temperature (°C)  =  49.60
                           Pressure (atm)  =  5.90
                  Electrical balance (eq)  =   1.994e-14
 Percent error, 100*(Cat-|An|)/(Cat+|An|)  =   0.00
                               Iterations  =   6
                                  Total H  = 1.110125e+02
                                  Total O  = 5.550624e+01

----------------------------Distribution of species----------------------------

                                               Log       Log       Log    mole V
   Species          Molality    Activity  Molality  Activity     Gamma   cm³/mol

   OH-             1.029e-06   5.095e-07    -5.988    -6.293    -0.305      1.38
   H+              1.410e-07   1.000e-07    -6.851    -7.000    -0.149      0.00
   H2O             5.551e+01   9.503e-01     1.744    -0.022     0.000     18.23
Ca            8.777e-01
   Ca+2            8.777e-01   2.987e-01    -0.057    -0.525    -0.468    -14.98
   CaOH+           3.485e-07   4.714e-07    -6.458    -6.327     0.131     (0)  
Cl            1.948e+00
   Cl-             1.948e+00   1.100e+00     0.290     0.041    -0.248     19.89
   HCl             1.856e-09   3.251e-08    -8.732    -7.488     1.244     21.64
H(0)          5.554e-26
   H2              2.777e-26   5.629e-26   -25.556   -25.250     0.307     16.40
Mg            9.630e-02
   Mg+2            9.628e-02   4.822e-02    -1.016    -1.317    -0.300    -19.76
   MgOH+           2.026e-05   1.295e-05    -4.693    -4.888    -0.194     (0)  
O(0)          3.576e-35
   O2              1.788e-35   3.504e-35   -34.748   -34.455     0.292     31.89

------------------------------Saturation indices-------------------------------

  Phase               SI** log IAP   log K(322 K,   6 atm)

  H2(g)           -22.12    -25.25   -3.13  H2
  H2O(g)           -0.95     -0.02    0.92  H2O
  O2(g)           -31.42    -34.46   -3.03  O2

**For a gas, SI = log10(fugacity). Fugacity = pressure * phi / 1 atm.
  For ideal gases, phi = 1.

------------------
End of simulation.
------------------

-------------------------------------
Reading input data for simulation 25.
-------------------------------------

-------------------------------------------
Beginning of initial solution calculations.
-------------------------------------------

Initial solution 2.	

-----------------------------Solution composition------------------------------

	Elements           Molality       Moles

	Ca                7.906e-01   7.906e-01
	Cl                1.977e+00   1.977e+00  Charge balance
	Mg                1.979e-01   1.979e-01

----------------------------Description of solution----------------------------

                                       pH  =   7.000    
                                       pe  =   4.000    
      Specific Conductance (µS/cm,  50°C)  = 189237
                          Density (g/cm³)  =   1.06884
                               Volume (L)  =   1.03532
                        Viscosity (mPa s)  =   0.76591
                        Activity of water  =   0.950
                 Ionic strength (mol/kgw)  =   2.965e+00
                       Mass of water (kg)  =   1.000e+00
                 Total alkalinity (eq/kg)  =   4.351e-05
                         Temperature (°C)  =  49.60
                           Pressure (atm)  =  5.90
                  Electrical balance (eq)  =   2.807e-14
 Percent error, 100*(Cat-|An|)/(Cat+|An|)  =   0.00
                               Iterations  =   6
                                  Total H  = 1.110125e+02
                                  Total O  = 5.550626e+01

----------------------------Distribution of species----------------------------

                                               Log       Log       Log    mole V
   Species          Molality    Activity  Molality  Activity     Gamma   cm³/mol

   OH-             1.030e-06   5.091e-07    -5.987    -6.293    -0.306      1.44
   H+              1.411e-07   1.000e-07    -6.851    -7.000    -0.149      0.00
   H2O             5.551e+01   9.496e-01     1.744    -0.022     0.000     18.23
Ca            7.906e-01
   Ca+2            7.906e-01   2.724e-01    -0.102    -0.565    -0.463    -14.96
   CaOH+           3.132e-07   4.296e-07    -6.504    -6.367     0.137     (0)  
Cl            1.977e+00
   Cl-             1.977e+00   1.116e+00     0.296     0.048    -0.248     19.90
   HCl             1.805e-09   3.300e-08    -8.744    -7.482     1.262     21.64
H(0)          5.496e-26
   H2              2.748e-26   5.629e-26   -25.561   -25.250     0.311     16.40
Mg            1.979e-01
   Mg+2            1.979e-01   1.007e-01    -0.704    -0.997    -0.293    -19.74
   MgOH+           4.231e-05   2.702e-05    -4.374    -4.568    -0.195     (0)  
O(0)          3.535e-35
   O2              1.768e-35   3.499e-35   -34.753   -34.456     0.297     31.89

------------------------------Saturation indices-------------------------------

  Phase               SI** log IAP   log K(322 K,   6 atm)

  H2(g)           -22.12    -25.25   -3.13  H2
  H2O(g)           -0.95     -0.02    0.92  H2O
  O2(g)           -31.43    -34.46   -3.03  O2

**For a gas, SI = log10(fugacity). Fugacity = pressure * phi / 1 atm.
  For ideal gases, phi = 1.

------------------
End of simulation.
------------------

-------------------------------------
Reading input data for simulation 26.
-------------------------------------

-------------------------------------------
Beginning of initial solution calculations.
-------------------------------------------

Initial solution 3.	

-----------------------------Solution composition------------------------------

	Elements           Molality       Moles

	Ca                6.568e-01   6.568e-01
	Cl                1.861e+00   1.861e+00  Charge balance
	Mg                2.737e-01   2.737e-01

----------------------------Description of solution----------------------------

                                       pH  =   7.000    
                                       pe  =   4.000    
      Specific Conductance (µS/cm,  50°C)  = 179911
                          Density (g/cm³)  =   1.06348
                               Volume (L)  =   1.03336
                        Viscosity (mPa s)  =   0.75750
                        Activity of water  =   0.953
                 Ionic strength (mol/kgw)  =   2.791e+00
                       Mass of water (kg)  =   1.000e+00
                 Total alkalinity (eq/kg)  =   5.598e-05
                         Temperature (°C)  =  49.60
                           Pressure (atm)  =  5.90
                  Electrical balance (eq)  =   2.586e-14
 Percent error, 100*(Cat-|An|)/(Cat+|An|)  =   0.00
                               Iterations  =   6
                                  Total H  = 1.110125e+02
                                  Total O  = 5.550627e+01

----------------------------Distribution of species----------------------------

[...]

----------------------------Distribution of species----------------------------

                                               Log       Log       Log    mole V
   Species          Molality    Activity  Molality  Activity     Gamma   cm³/mol

   OH-             1.196e-05   5.229e-06    -4.922    -5.282    -0.359      3.24
   H+              1.475e-07   1.000e-07    -6.831    -7.000    -0.169      0.00
   H2O             5.551e+01   9.230e-01     1.744    -0.035     0.000     18.79
Ca            7.648e-01
   Ca+2            7.648e-01   3.398e-01    -0.116    -0.469    -0.352    -14.85
   CaOH+           2.048e-07   5.208e-07    -6.689    -6.283     0.405     (0)  
Cl            3.018e+00
   Cl-             3.018e+00   1.610e+00     0.480     0.207    -0.273     19.54
   HCl             4.153e-10   3.493e-08    -9.382    -7.457     1.925     23.02
H(0)          2.614e-26
   H2              1.307e-26   3.902e-26   -25.884   -25.409     0.475     18.29
Mg            7.474e-01
   Mg+2            7.405e-01   5.694e-01    -0.130    -0.245    -0.114    -21.11
   MgOH+           6.884e-03   4.126e-03    -2.162    -2.385    -0.222     (0)  
O(0)          1.258e-23
   O2              6.288e-24   1.781e-23   -23.202   -22.749     0.452     33.86

------------------------------Saturation indices-------------------------------

  Phase               SI** log IAP   log K(372 K,   6 atm)

  H2(g)           -22.32    -25.41   -3.09  H2
  H2O(g)           -0.05     -0.03    0.01  H2O
  O2(g)           -19.63    -22.75   -3.12  O2

**For a gas, SI = log10(fugacity). Fugacity = pressure * phi / 1 atm.
  For ideal gases, phi = 1.

------------------
End of simulation.
------------------

-------------------------------------
Reading input data for simulation 82.
-------------------------------------

-------------------------------------------
Beginning of initial solution calculations.
-------------------------------------------

Initial solution 15.	

-----------------------------Solution composition------------------------------

	Elements           Molality       Moles

	Ca                5.907e-01   5.907e-01
	Cl                2.914e+00   2.914e+00  Charge balance
	Mg                8.703e-01   8.703e-01

----------------------------Description of solution----------------------------

                                       pH  =   7.000    
                                       pe  =   4.000    
      Specific Conductance (µS/cm,  99°C)  = 397041
                          Density (g/cm³)  =   1.07068
                               Volume (L)  =   1.07249
                        Viscosity (mPa s)  =   0.47047
                        Activity of water  =   0.926
                 Ionic strength (mol/kgw)  =   4.368e+00
                       Mass of water (kg)  =   1.000e+00
                 Total alkalinity (eq/kg)  =   7.551e-03
                         Temperature (°C)  =  99.40
                           Pressure (atm)  =  5.90
                  Electrical balance (eq)  =  -1.475e-10
 Percent error, 100*(Cat-|An|)/(Cat+|An|)  =  -0.00
                               Iterations  =   6
                                  Total H  = 1.110200e+02
                                  Total O  = 5.551377e+01

----------------------------Distribution of species----------------------------

                                               Log       Log       Log    mole V
   Species          Molality    Activity  Molality  Activity     Gamma   cm³/mol

   OH-             1.194e-05   5.244e-06    -4.923    -5.280    -0.357      3.00
   H+              1.474e-07   1.000e-07    -6.832    -7.000    -0.168      0.00
   H2O             5.551e+01   9.256e-01     1.744    -0.034     0.000     18.79
Ca            5.907e-01
   Ca+2            5.907e-01   2.498e-01    -0.229    -0.602    -0.374    -14.91
   CaOH+           1.602e-07   3.840e-07    -6.795    -6.416     0.380     (0)  
Cl            2.914e+00
   Cl-             2.914e+00   1.551e+00     0.465     0.191    -0.274     19.49
   HCl             4.658e-10   3.367e-08    -9.332    -7.473     1.859     23.02
H(0)          2.714e-26
   H2              1.357e-26   3.902e-26   -25.867   -25.409     0.459     18.29
Mg            8.703e-01
   Mg+2            8.628e-01   6.228e-01    -0.064    -0.206    -0.142    -21.16
   MgOH+           7.539e-03   4.525e-03    -2.123    -2.344    -0.222     (0)  
O(0)          1.311e-23
   O2              6.553e-24   1.792e-23   -23.184   -22.747     0.437     33.86

------------------------------Saturation indices-------------------------------

  Phase               SI** log IAP   log K(372 K,   6 atm)

  H2(g)           -22.32    -25.41   -3.09  H2
  H2O(g)           -0.05     -0.03    0.01  H2O
  O2(g)           -19.63    -22.75   -3.12  O2

**For a gas, SI = log10(fugacity). Fugacity = pressure * phi / 1 atm.
  For ideal gases, phi = 1.

------------------
End of simulation.
------------------

-------------------------------------
Reading input data for simulation 83.
-------------------------------------

-------------------------------------------
Beginning of initial solution calculations.
-------------------------------------------

Initial solution 16.	

-----------------------------Solution composition------------------------------

	Elements           Molality       Moles

	Ca                4.429e-01   4.429e-01
	Cl                2.947e+00   2.947e+00  Charge balance
	Mg                1.035e+00   1.035e+00

----------------------------Description of solution----------------------------

                                       pH  =   7.000    
                                       pe  =   4.000    
      Specific Conductance (µS/cm,  99°C)  = 395673
                          Density (g/cm³)  =   1.07055
                               Volume (L)  =   1.07193
                        Viscosity (mPa s)  =   0.47665
                        Activity of water  =   0.925
                 Ionic strength (mol/kgw)  =   4.416e+00
                       Mass of water (kg)  =   1.000e+00
                 Total alkalinity (eq/kg)  =   9.151e-03
                         Temperature (°C)  =  99.40
                           Pressure (atm)  =  5.90
                  Electrical balance (eq)  =  -2.345e-10
 Percent error, 100*(Cat-|An|)/(Cat+|An|)  =  -0.00
                               Iterations  =   6
                                  Total H  = 1.110216e+02
                                  Total O  = 5.551537e+01

----------------------------Distribution of species----------------------------

                                               Log       Log       Log    mole V
   Species          Molality    Activity  Molality  Activity     Gamma   cm³/mol

   OH-             1.195e-05   5.240e-06    -4.923    -5.281    -0.358      3.07
   H+              1.474e-07   1.000e-07    -6.832    -7.000    -0.168      0.00
   H2O             5.551e+01   9.248e-01     1.744    -0.034     0.000     18.79
Ca            4.429e-01
   Ca+2            4.429e-01   1.902e-01    -0.354    -0.721    -0.367    -14.89
   CaOH+           1.196e-07   2.921e-07    -6.922    -6.535     0.388     (0)  
Cl            2.947e+00
   Cl-             2.947e+00   1.570e+00     0.469     0.196    -0.274     19.51
   HCl             4.496e-10   3.407e-08    -9.347    -7.468     1.879     23.02
H(0)          2.683e-26
   H2              1.341e-26   3.902e-26   -25.872   -25.409     0.464     18.29
Mg            1.035e+00
   Mg+2            1.026e+00   7.553e-01     0.011    -0.122    -0.133    -21.14
   MgOH+           9.139e-03   5.483e-03    -2.039    -2.261    -0.222     (0)  
O(0)          1.294e-23
   O2              6.469e-24   1.788e-23   -23.189   -22.748     0.442     33.86

------------------------------Saturation indices-------------------------------

  Phase               SI** log IAP   log K(372 K,   6 atm)

  H2(g)           -22.32    -25.41   -3.09  H2
  H2O(g)           -0.05     -0.03    0.01  H2O
  O2(g)           -19.63    -22.75   -3.12  O2

**For a gas, SI = log10(fugacity). Fugacity = pressure * phi / 1 atm.
  For ideal gases, phi = 1.

------------------
End of simulation.
------------------

-------------------------------------
Reading input data for simulation 84.
-------------------------------------

-------------------------------------------
Beginning of initial solution calculations.
-------------------------------------------

Initial solution 17.	

-----------------------------Solution composition------------------------------

	Elements           Molality       Moles

	Ca                3.025e-01   3.025e-01
	Cl                2.922e+00   2.922e+00  Charge balance
	Mg                1.163e+00   1.163e+00

----------------------------Description of solution----------------------------

                                       pH  =   7.000    
                                       pe  =   4.000    
      Specific Conductance (µS/cm,  99°C)  = 390248
                          Density (g/cm³)  =   1.06852
                               Volume (L)  =   1.07079
                        Viscosity (mPa s)  =   0.47865
                        Activity of water  =   0.925
                 Ionic strength (mol/kgw)  =   4.377e+00
                       Mass of water (kg)  =   1.000e+00
                 Total alkalinity (eq/kg)  =   1.013e-02
                         Temperature (°C)  =  99.40
                           Pressure (atm)  =  5.90
                  Electrical balance (eq)  =  -1.649e-10
 Percent error, 100*(Cat-|An|)/(Cat+|An|)  =  -0.00
                               Iterations  =   6
                                  Total H  = 1.110226e+02
                                  Total O  = 5.551634e+01

----------------------------Distribution of species----------------------------

                                               Log       Log       Log    mole V
   Species          Molality    Activity  Molality  Activity     Gamma   cm³/mol

   OH-             1.194e-05   5.243e-06    -4.923    -5.280    -0.358      3.01
   H+              1.474e-07   1.000e-07    -6.832    -7.000    -0.168      0.00
   H2O             5.551e+01   9.254e-01     1.744    -0.034     0.000     18.79
Ca            3.025e-01
   Ca+2            3.025e-01   1.283e-01    -0.519    -0.892    -0.372    -14.91
   CaOH+           8.196e-08   1.972e-07    -7.086    -6.705     0.381     (0)  
Cl            2.922e+00
   Cl-             2.922e+00   1.555e+00     0.466     0.192    -0.274     19.50
   HCl             4.627e-10   3.376e-08    -9.335    -7.472     1.863     23.02
H(0)          2.708e-26
   H2              1.354e-26   3.902e-26   -25.868   -25.409     0.460     18.29
Mg            1.163e+00
   Mg+2            1.153e+00   8.357e-01     0.062    -0.078    -0.140    -21.15
   MgOH+           1.012e-02   6.072e-03    -1.995    -2.217    -0.222     (0)  
O(0)          1.307e-23
   O2              6.536e-24   1.791e-23   -23.185   -22.747     0.438     33.86

------------------------------Saturation indices-------------------------------

  Phase               SI** log IAP   log K(372 K,   6 atm)

  H2(g)           -22.32    -25.41   -3.09  H2
  H2O(g)           -0.05     -0.03    0.01  H2O
  O2(g)           -19.63    -22.75   -3.12  O2

**For a gas, SI = log10(fugacity). Fugacity = pressure * phi / 1 atm.
  For ideal gases, phi = 1.

------------------
End of simulation.
------------------

-------------------------------------
Reading input data for simulation 85.
-------------------------------------

-------------------------------------------
Beginning of initial solution calculations.
-------------------------------------------

Initial solution 18.	

-----------------------------Solution composition------------------------------

	Elements           Molality       Moles

	Ca                1.411e-01   1.411e-01
	Cl                2.886e+00   2.886e+00  Charge balance
	Mg                1.308e+00   1.308e+00

----------------------------Description of solution----------------------------

                                       pH  =   7.000    
                                       pe  =   4.000    
      Specific Conductance (µS/cm,  99°C)  = 383391
                          Density (g/cm³)  =   1.06597
                               Volume (L)  =   1.06941
                        Viscosity (mPa s)  =   0.48074
                        Activity of water  =   0.926
                 Ionic strength (mol/kgw)  =   4.324e+00
                       Mass of water (kg)  =   1.000e+00
                 Total alkalinity (eq/kg)  =   1.114e-02
                         Temperature (°C)  =  99.40
                           Pressure (atm)  =  5.90
                  Electrical balance (eq)  =  -9.718e-11
 Percent error, 100*(Cat-|An|)/(Cat+|An|)  =  -0.00
                               Iterations  =   6
                                  Total H  = 1.110236e+02
                                  Total O  = 5.551736e+01

----------------------------Distribution of species----------------------------

                                               Log       Log       Log    mole V
   Species          Molality    Activity  Molality  Activity     Gamma   cm³/mol

   OH-             1.194e-05   5.248e-06    -4.923    -5.280    -0.357      2.93
   H+              1.473e-07   1.000e-07    -6.832    -7.000    -0.168      0.00
   H2O             5.551e+01   9.263e-01     1.744    -0.033     0.000     18.79
Ca            1.411e-01
   Ca+2            1.411e-01   5.884e-02    -0.850    -1.230    -0.380    -14.93
   CaOH+           3.839e-08   9.051e-08    -7.416    -7.043     0.372     (0)  
Cl            2.886e+00
   Cl-             2.886e+00   1.535e+00     0.460     0.186    -0.274     19.48
   HCl             4.815e-10   3.332e-08    -9.317    -7.477     1.840     23.02
H(0)          2.743e-26
   H2              1.372e-26   3.902e-26   -25.863   -25.409     0.454     18.29
Mg            1.308e+00
   Mg+2            1.296e+00   9.191e-01     0.113    -0.037    -0.149    -21.17
   MgOH+           1.113e-02   6.684e-03    -1.954    -2.175    -0.221     (0)  
O(0)          1.326e-23
   O2              6.630e-24   1.794e-23   -23.178   -22.746     0.432     33.86

------------------------------Saturation indices-------------------------------

  Phase               SI** log IAP   log K(372 K,   6 atm)

  H2(g)           -22.32    -25.41   -3.09  H2
  H2O(g)           -0.05     -0.03    0.01  H2O
  O2(g)           -19.63    -22.75   -3.12  O2

**For a gas, SI = log10(fugacity). Fugacity = pressure * phi / 1 atm.
  For ideal gases, phi = 1.

------------------
End of simulation.
------------------

-------------------------------------
Reading input data for simulation 86.
-------------------------------------

------------------
End of simulation.
------------------

-------------------------------------
Reading input data for simulation 87.
-------------------------------------

-------------------------------------------
Beginning of initial solution calculations.
-------------------------------------------

Initial solution 1.	

-----------------------------Solution composition------------------------------

	Elements           Molality       Moles

	Pure water     

----------------------------Description of solution----------------------------

                                       pH  =   7.000    
                                       pe  =   4.000    
      Specific Conductance (µS/cm,  25°C)  = 0
                          Density (g/cm³)  =   0.99704
                               Volume (L)  =   1.00297
                        Viscosity (mPa s)  =   0.89002
                        Activity of water  =   1.000
                 Ionic strength (mol/kgw)  =   1.007e-07
                       Mass of water (kg)  =   1.000e+00
                 Total alkalinity (eq/kg)  =   1.217e-09
                         Temperature (°C)  =  25.00
                  Electrical balance (eq)  =  -1.217e-09
 Percent error, 100*(Cat-|An|)/(Cat+|An|)  =  -0.60
                               Iterations  =   0
                                  Total H  = 1.110124e+02
                                  Total O  = 5.550622e+01

----------------------------Distribution of species----------------------------

                                               Log       Log       Log    mole V
   Species          Molality    Activity  Molality  Activity     Gamma   cm³/mol

   OH-             1.013e-07   1.012e-07    -6.995    -6.995    -0.000     -4.14
   H+              1.001e-07   1.000e-07    -7.000    -7.000    -0.000      0.00
   H2O             5.551e+01   1.000e+00     1.744     0.000     0.000     18.07
H(0)          1.416e-25
   H2              7.079e-26   7.079e-26   -25.150   -25.150     0.000     14.99
O(0)          0.000e+00
   O2              0.000e+00   0.000e+00   -42.063   -42.063     0.000     30.40

------------------------------Saturation indices-------------------------------

  Phase               SI** log IAP   log K(298 K,   1 atm)

  H2(g)           -22.05    -25.15   -3.10  H2
  H2O(g)           -1.50      0.00    1.50  H2O
  O2(g)           -39.17    -42.06   -2.89  O2

**For a gas, SI = log10(fugacity). Fugacity = pressure * phi / 1 atm.
  For ideal gases, phi = 1.

------------------
End of simulation.
------------------

-------------------------------------
Reading input data for simulation 88.
-------------------------------------

-------------------------------------------
Beginning of initial solution calculations.
-------------------------------------------

Initial solution 2.	

-----------------------------Solution composition------------------------------

	Elements           Molality       Moles

	Pure water     

----------------------------Description of solution----------------------------

                                       pH  =   7.000    
                                       pe  =   4.000    
      Specific Conductance (µS/cm,  25°C)  = 0
                          Density (g/cm³)  =   0.99704
                               Volume (L)  =   1.00297
                        Viscosity (mPa s)  =   0.89002
                        Activity of water  =   1.000
                 Ionic strength (mol/kgw)  =   1.007e-07
                       Mass of water (kg)  =   1.000e+00
                 Total alkalinity (eq/kg)  =   1.217e-09
                         Temperature (°C)  =  25.00
                  Electrical balance (eq)  =  -1.217e-09
 Percent error, 100*(Cat-|An|)/(Cat+|An|)  =  -0.60
                               Iterations  =   0
                                  Total H  = 1.110124e+02
                                  Total O  = 5.550622e+01

----------------------------Distribution of species----------------------------

                                               Log       Log       Log    mole V
   Species          Molality    Activity  Molality  Activity     Gamma   cm³/mol

   OH-             1.013e-07   1.012e-07    -6.995    -6.995    -0.000     -4.14
   H+              1.001e-07   1.000e-07    -7.000    -7.000    -0.000      0.00
   H2O             5.551e+01   1.000e+00     1.744     0.000     0.000     18.07
H(0)          1.416e-25
   H2              7.079e-26   7.079e-26   -25.150   -25.150     0.000     14.99
O(0)          0.000e+00
   O2              0.000e+00   0.000e+00   -42.063   -42.063     0.000     30.40

------------------------------Saturation indices-------------------------------

  Phase               SI** log IAP   log K(298 K,   1 atm)

  H2(g)           -22.05    -25.15   -3.10  H2
  H2O(g)           -1.50      0.00    1.50  H2O
  O2(g)           -39.17    -42.06   -2.89  O2

**For a gas, SI = log10(fugacity). Fugacity = pressure * phi / 1 atm.
  For ideal gases, phi = 1.

------------------
End of simulation.
------------------

-------------------------------------
Reading input data for simulation 89.
-------------------------------------

