WARNING: Database file from DATABASE keyword is used; command line argument ignored.
   Input file: saver
  Output file: saver.out
Database file: ../database/phreeqc.dat

------------------
Reading data base.
------------------

	SOLUTION_MASTER_SPECIES
	SOLUTION_SPECIES
	PHASES
	GAS_BINARY_PARAMETERS
	EXCHANGE_MASTER_SPECIES
	EXCHANGE_SPECIES
	SURFACE_MASTER_SPECIES
	SURFACE_SPECIES
	MEAN_GAMMAS
	RATES
	END
------------------------------------
Reading input data for simulation 1.
------------------------------------

	DATABASE ../database/phreeqc.dat
	SELECTED_OUTPUT 101
	    file                 saver_101.sel
	USER_PUNCH 101
	    headings Mu SC
	    start
	10 PUNCH STR_F$(MU, 20, 12)
	20 PUNCH STR_F$(SC, 20, 10)
	    end
	knobs
		logfile
	PRINT
		status false
	SURFACE 1-2
		equilibrate with solution 1
		SurfOH	0.001	1071.	0.33
	SURFACE_MASTER_SPECIES
		Surf	SurfOH
	SURFACE_SPECIES
		SurfOH = SurfOH
		log_k	0.0
		SurfOH  + H+ = SurfOH2+
		log_k	6.3
		SurfOH = SurfO- + H+
		log_k	-7.1
		SurfOH + MoO4-2 + H+ = SurfMoO4- + H2O
		log_k	8.8
		SurfOH + MoO4-2 = SurfOHMoO4-2
		log_k	2.2
	SOLUTION_MASTER_SPECIES
		Mo	MoO4-2		1.0	160.94		95.94
	SOLUTION_SPECIES
		MoO4-2 = MoO4-2
		log_k	0.0
		MoO4-2 + H+ = HMoO4-
		log_k	4.24
		MoO4-2 + 2H+ = H2MoO4
		log_k	6.85
		MoO4-2 + Ca+2 = CaMoO4
		log_k	2.57
		MoO4-2 + Mg+2 = MgMoO4
		log_k	3.03
	REACTION 1-2  	Reaction test
		HCl  1.0
		1.0 mol in 2 steps
	REACTION_TEMPERATURE 1-2
		25.0 35.0 in 2 steps
	EXCHANGE 1-2
		CaX2	1.0 
		NaX     1.0
	SOLUTION 1-2	Seawater
		Temp 25.
		pH 8.22  # charge
		density 1.02
		pe  8.45 #	O2(g) -0.7
		units ppm
		Mo      1.0 ppb
		Ca	412.3   # Calcite
		Mg	1291.8
		Na	10768.0
		O(0)	8.	O2(g) -0.7	#equilibrium with atmospheric oxygen
		K	399.1
		Fe	2.0 ppb	N(5)/N(-3)	#units are ppb for iron
		Mn   	0.0002
		Al	0.002
		Ba	0.02
		Sr	8.14
		Si  	4.28
		Cl	19353.0
		Alkalinity	141.682	as HCO3	#concentration given as bicarbonate
		S(6)	2712.0 
		N(5) N(3)	0.290   as NO3
		B	24.45
		P	0.06    as PO4
		F	1.39
		Li	0.181
		Br	67.3
		N(-3)	0.03 	as NH4
		N(0)	1.0    	N2(g) -0.3	#equilibrium with atmospheric nitrogen
	PURE_PHASES 1-2  Complete phase assemblage
		Gibbsite	0.0     2.0
		Kaolinite	0.0     5.0
		Chalcedony	0.0     2.1
		Calcite		0.0 	1.0
		Dolomite	0.0     1.0
		Anhydrite	0.0     1.0
		Gypsum		0.0     1.0
		Siderite	0.0     1.0
		FeS(ppt)	0.0     1.0
		Goethite	0.0     1.0
		Sulfur		0.0     0.0
		Aragonite	0.0 	2.5
	GAS_PHASE 1-2
		pressure 	1.0
		volume		1.0
		temp		25.0
		CH4(g)          0.000001
		CO2(g)		0.000316
		O2(g)		0.2
		N2(g)		0.78
	USE SOLUTION 1
	USE SURFACE 1
	USE EXCHANGE 1
	USE PURE_PHASES 1
	USE REACTION 1
	USE GAS_PHASE 1
	USE REACTION_TEMPERATURE 1
	SAVE SOLUTION 3
	SAVE SURFACE 3
	SAVE EXCHANGE 3
	SAVE PURE_PHASES 3
	SAVE GAS_PHASE 3
	END
-------------------------------------------
Beginning of initial solution calculations.
-------------------------------------------

Initial solution 1.	Seawater

-----------------------------Solution composition------------------------------

	Elements           Molality       Moles

	Al                7.683e-08   7.683e-08
	Alkalinity        2.407e-03   2.407e-03
	B                 2.344e-03   2.344e-03
	Ba                1.509e-07   1.509e-07
	Br                8.730e-04   8.730e-04
	Ca                1.066e-02   1.066e-02
	Cl                5.658e-01   5.658e-01
	F                 7.583e-05   7.583e-05
	Fe                3.712e-08   3.712e-08
	K                 1.058e-02   1.058e-02
	Li                2.704e-05   2.704e-05
	Mg                5.507e-02   5.507e-02
	Mn                3.773e-09   3.773e-09
	Mo                6.440e-09   6.440e-09
	N(-3)             1.724e-06   1.724e-06
	N(0)              5.725e-04   5.725e-04  Equilibrium with N2(g)
	N(5) N(3)         4.848e-06   4.848e-06
	Na                4.855e-01   4.855e-01
	O(0)              4.377e-04   4.377e-04  Equilibrium with O2(g)
	P                 6.548e-07   6.548e-07
	S(6)              2.926e-02   2.926e-02
	Si                7.383e-05   7.383e-05
	Sr                9.629e-05   9.629e-05

----------------------------Description of solution----------------------------

                                       pH  =   8.220    
                                       pe  =   8.450    
      Specific Conductance (µS/cm,  25°C)  = 52959
                          Density (g/cm³)  =   1.02337
                               Volume (L)  =   1.01290
                        Viscosity (mPa s)  =   0.95668
                        Activity of water  =   0.981
                 Ionic strength (mol/kgw)  =   6.745e-01
                       Mass of water (kg)  =   1.000e+00
                    Total carbon (mol/kg)  =   1.947e-03
                       Total CO2 (mol/kg)  =   1.947e-03
                         Temperature (°C)  =  25.00
                  Electrical balance (eq)  =   6.433e-05
 Percent error, 100*(Cat-|An|)/(Cat+|An|)  =   0.01
                               Iterations  =   8
                                  Total H  = 1.110213e+02
                                  Total O  = 5.563689e+01

---------------------------------Redox couples---------------------------------

	Redox couple             pe  Eh (volts)

	N(-3)/N(0)          -4.3432     -0.2569
	N(-3)/N(5)           4.6760      0.2766
	N(0)/N(5)           10.0875      0.5967
	O(-2)/O(0)          12.4018      0.7336

----------------------------Distribution of species----------------------------

                                               Log       Log       Log    mole V
   Species          Molality    Activity  Molality  Activity     Gamma   cm³/mol

   OH-             2.705e-06   1.647e-06    -5.568    -5.783    -0.215     -2.63
   H+              7.983e-09   6.026e-09    -8.098    -8.220    -0.122      0.00
   H2O             5.551e+01   9.805e-01     1.744    -0.009     0.000     18.07
Al            7.683e-08
   Al(OH)4-        7.668e-08   4.960e-08    -7.115    -7.305    -0.189     (0)  
   Al(OH)3         1.385e-10   1.617e-10    -9.859    -9.791     0.067     (0)  
   Al(OH)2+        9.988e-12   6.745e-12   -11.001   -11.171    -0.170     (0)  
   AlOH+2          2.543e-14   5.289e-15   -13.595   -14.277    -0.682    -26.61
   AlF2+           1.331e-14   8.986e-15   -13.876   -14.046    -0.170     (0)  
   AlF+2           3.683e-15   7.659e-16   -14.434   -15.116    -0.682     (0)  
   AlF3            2.267e-15   2.648e-15   -14.644   -14.577     0.067     (0)  
   Al+3            4.116e-17   3.272e-18   -16.385   -17.485    -1.100    -40.24
   AlF4-           3.815e-17   2.468e-17   -16.418   -16.608    -0.189     (0)  
   AlSO4+          3.606e-17   2.332e-17   -16.443   -16.632    -0.189     (0)  
   Al(SO4)2-       2.570e-18   1.663e-18   -17.590   -17.779    -0.189     (0)  
   AlHSO4+2        4.006e-26   1.246e-26   -25.397   -25.904    -0.507     (0)  
B             2.344e-03
   H3BO3           2.040e-03   2.382e-03    -2.690    -2.623     0.067     39.23
   H2BO3-          3.046e-04   2.275e-04    -3.516    -3.643    -0.127     (0)  
   BF(OH)3-        2.973e-08   2.220e-08    -7.527    -7.654    -0.127     (0)  
   BF2(OH)2-       4.582e-13   3.422e-13   -12.339   -12.466    -0.127     (0)  
   BF3OH-          7.228e-20   5.398e-20   -19.141   -19.268    -0.127     (0)  
   BF4-            4.236e-26   3.164e-26   -25.373   -25.500    -0.127     (0)  
Ba            1.509e-07
   Ba+2            1.503e-07   4.359e-08    -6.823    -7.361    -0.537    -11.05
   BaHCO3+         5.377e-10   4.015e-10    -9.269    -9.396    -0.127     (0)  
   BaCO3           1.442e-10   1.684e-10    -9.841    -9.774     0.067    -10.70
   BaOH+           3.624e-13   2.404e-13   -12.441   -12.619    -0.178     (0)  
Br            8.730e-04
   Br-             8.730e-04   5.494e-04    -3.059    -3.260    -0.201     25.23
C(4)          1.947e-03
   HCO3-           1.406e-03   9.609e-04    -2.852    -3.017    -0.165     28.02
   MgHCO3+         2.499e-04   1.572e-04    -3.602    -3.804    -0.201      5.82
   NaHCO3          1.283e-04   1.622e-04    -3.892    -3.790     0.102     17.66
   MgCO3           8.540e-05   9.975e-05    -4.069    -4.001     0.067    -17.09
   CO3-2           3.596e-05   7.479e-06    -4.444    -5.126    -0.682     -0.67
   CaCO3           2.665e-05   3.112e-05    -4.574    -4.507     0.067    -14.60
   CO2             1.198e-05   1.328e-05    -4.921    -4.877     0.045     34.79
   KHCO3           2.367e-06   2.764e-06    -5.626    -5.558     0.067     21.42
   SrHCO3+         4.672e-07   3.155e-07    -6.330    -6.501    -0.170     (0)  
   SrCO3           8.775e-08   1.025e-07    -7.057    -6.989     0.067    -14.13
   BaHCO3+         5.377e-10   4.015e-10    -9.269    -9.396    -0.127     (0)  
   CaHCO3+         3.016e-10   2.087e-10    -9.520    -9.680    -0.160      9.96
   MnCO3           2.561e-10   2.991e-10    -9.592    -9.524     0.067     (0)  
   BaCO3           1.442e-10   1.684e-10    -9.841    -9.774     0.067    -10.70
   MnHCO3+         6.501e-11   4.312e-11   -10.187   -10.365    -0.178     (0)  
   (CO2)2          2.586e-12   2.866e-12   -11.587   -11.543     0.045     68.75
   FeCO3           9.243e-13   1.080e-12   -12.034   -11.967     0.067     (0)  
   FeHCO3+         7.743e-13   5.782e-13   -12.111   -12.238    -0.127     (0)  
Ca            1.066e-02
   Ca+2            9.908e-03   2.477e-03    -2.004    -2.606    -0.602    -16.69
   CaSO4           7.270e-04   7.790e-04    -3.138    -3.108     0.030      7.22
   CaCO3           2.665e-05   3.112e-05    -4.574    -4.507     0.067    -14.60
   CaOH+           8.959e-08   6.690e-08    -7.048    -7.175    -0.127     (0)  
   CaHPO4          3.278e-08   3.829e-08    -7.484    -7.417     0.067     (0)  
   CaPO4-          2.226e-08   1.503e-08    -7.652    -7.823    -0.170     (0)  
   CaHCO3+         3.016e-10   2.087e-10    -9.520    -9.680    -0.160      9.96
   CaMoO4          3.016e-10   3.523e-10    -9.521    -9.453     0.067     (0)  
   CaH2PO4+        2.568e-10   1.734e-10    -9.590    -9.761    -0.170     (0)  
   CaHSO4+         5.267e-11   3.934e-11   -10.278   -10.405    -0.127     (0)  
Cl            5.658e-01
   Cl-             5.658e-01   3.569e-01    -0.247    -0.448    -0.200     18.79
   MnCl+           1.104e-09   7.320e-10    -8.957    -9.136    -0.178     -2.79
   HCl             3.825e-10   7.407e-10    -9.417    -9.130     0.287     20.36
   MnCl2           9.762e-11   1.140e-10   -10.010    -9.943     0.067     85.89
   MnCl3-          1.690e-11   1.121e-11   -10.772   -10.951    -0.178     45.79
   FeCl+           3.969e-12   2.964e-12   -11.401   -11.528    -0.127     (0)  
   FeCl+2          1.518e-18   2.937e-19   -17.819   -18.532    -0.713     (0)  
   FeCl2+          7.059e-19   4.682e-19   -18.151   -18.330    -0.178     (0)  
   FeCl3           1.430e-20   1.671e-20   -19.845   -19.777     0.067     (0)  
F             7.583e-05
   F-              3.844e-05   2.341e-05    -4.415    -4.631    -0.215     -0.57
   MgF+            3.342e-05   2.162e-05    -4.476    -4.665    -0.189    -10.25
   NaF             3.939e-06   4.601e-06    -5.405    -5.337     0.067      7.26
   BF(OH)3-        2.973e-08   2.220e-08    -7.527    -7.654    -0.127     (0)  
   HF              1.811e-10   2.115e-10    -9.742    -9.675     0.067     12.50
   BF2(OH)2-       4.582e-13   3.422e-13   -12.339   -12.466    -0.127     (0)  
   MnF+            1.229e-13   8.154e-14   -12.910   -13.089    -0.178     (0)  
   HF2-            2.544e-14   1.900e-14   -13.594   -13.721    -0.127     22.81
   AlF2+           1.331e-14   8.986e-15   -13.876   -14.046    -0.170     (0)  
   AlF+2           3.683e-15   7.659e-16   -14.434   -15.116    -0.682     (0)  
   AlF3            2.267e-15   2.648e-15   -14.644   -14.577     0.067     (0)  
   FeF+            1.886e-15   1.409e-15   -14.724   -14.851    -0.127     (0)  
   AlF4-           3.815e-17   2.468e-17   -16.418   -16.608    -0.189     (0)  
   FeF+2           5.225e-18   1.011e-18   -17.282   -17.995    -0.713     (0)  
   FeF2+           1.421e-18   9.423e-19   -17.847   -18.026    -0.178     (0)  
   BF3OH-          7.228e-20   5.398e-20   -19.141   -19.268    -0.127     (0)  
   FeF3            2.993e-20   3.496e-20   -19.524   -19.456     0.067     (0)  
   BF4-            4.236e-26   3.164e-26   -25.373   -25.500    -0.127     (0)  
   SiF6-2          1.514e-34   2.930e-35   -33.820   -34.533    -0.713     45.55
Fe(2)         3.446e-11
   Fe+2            2.626e-11   6.018e-12   -10.581   -11.221    -0.640    -20.71
   FeCl+           3.969e-12   2.964e-12   -11.401   -11.528    -0.127     (0)  
   FeSO4           2.065e-12   2.412e-12   -11.685   -11.618     0.067     30.28
   FeCO3           9.243e-13   1.080e-12   -12.034   -11.967     0.067     (0)  
   FeHCO3+         7.743e-13   5.782e-13   -12.111   -12.238    -0.127     (0)  
   FeOH+           4.669e-13   3.097e-13   -12.331   -12.509    -0.178     (0)  
   FeF+            1.886e-15   1.409e-15   -14.724   -14.851    -0.127     (0)  
   FeHPO4          5.782e-16   6.753e-16   -15.238   -15.171     0.067     (0)  
   Fe(OH)2         3.672e-16   4.289e-16   -15.435   -15.368     0.067     (0)  
   FeH2PO4+        1.222e-17   8.251e-18   -16.913   -17.084    -0.170     (0)  
   Fe(OH)3-        3.910e-18   2.593e-18   -17.408   -17.586    -0.178     (0)  
   FeHSO4+         1.279e-19   9.555e-20   -18.893   -19.020    -0.127     (0)  
Fe(3)         3.708e-08
   Fe(OH)3         2.769e-08   3.234e-08    -7.558    -7.490     0.067     (0)  
   Fe(OH)4-        7.108e-09   4.800e-09    -8.148    -8.319    -0.170     (0)  
   Fe(OH)2+        2.285e-09   1.543e-09    -8.641    -8.812    -0.170     (0)  
   FeOH+2          1.480e-13   2.863e-14   -12.830   -13.543    -0.713     (0)  
   FeF+2           5.225e-18   1.011e-18   -17.282   -17.995    -0.713     (0)  
   FeCl+2          1.518e-18   2.937e-19   -17.819   -18.532    -0.713     (0)  
   FeF2+           1.421e-18   9.423e-19   -17.847   -18.026    -0.178     (0)  
   FeSO4+          1.016e-18   6.736e-19   -17.993   -18.172    -0.178     (0)  
   FeCl2+          7.059e-19   4.682e-19   -18.151   -18.330    -0.178     (0)  
   Fe+3            3.429e-19   2.725e-20   -18.465   -19.565    -1.100     (0)  
   Fe(SO4)2-       4.449e-20   3.322e-20   -19.352   -19.479    -0.127     (0)  
   FeF3            2.993e-20   3.496e-20   -19.524   -19.456     0.067     (0)  
   FeCl3           1.430e-20   1.671e-20   -19.845   -19.777     0.067     (0)  
   FeHPO4+         3.117e-22   2.068e-22   -21.506   -21.685    -0.178     (0)  
   FeH2PO4+2       9.648e-23   2.007e-23   -22.016   -22.698    -0.682     (0)  
   Fe2(OH)2+4      2.357e-24   2.207e-26   -23.628   -25.656    -2.029     (0)  
   FeHSO4+2        3.494e-26   1.087e-26   -25.457   -25.964    -0.507     (0)  
   Fe3(OH)4+5      1.051e-29   7.113e-33   -28.978   -32.148    -3.170     (0)  
H(0)          5.498e-37
   H2              2.749e-37   3.236e-37   -36.561   -36.490     0.071     14.99
K             1.058e-02
   K+              1.033e-02   6.440e-03    -1.986    -2.191    -0.205      9.66
   KSO4-           2.435e-04   2.209e-04    -3.613    -3.656    -0.042     35.15
   KHCO3           2.367e-06   2.764e-06    -5.626    -5.558     0.067     21.42
   KHPO4-          5.241e-10   3.540e-10    -9.281    -9.451    -0.170     39.62
Li            2.704e-05
   Li+             2.676e-05   1.852e-05    -4.572    -4.732    -0.160     -0.71
   LiSO4-          2.747e-07   1.822e-07    -6.561    -6.739    -0.178     (0)  
Mg            5.507e-02
   Mg+2            4.843e-02   1.398e-02    -1.315    -1.855    -0.540    -20.41
   MgSO4           6.047e-03   8.250e-03    -2.218    -2.084     0.135     -0.40
   MgHCO3+         2.499e-04   1.572e-04    -3.602    -3.804    -0.201      5.82
   Mg(SO4)2-2      2.165e-04   6.126e-05    -3.664    -4.213    -0.548     48.72
   MgCO3           8.540e-05   9.975e-05    -4.069    -4.001     0.067    -17.09
   MgF+            3.342e-05   2.162e-05    -4.476    -4.665    -0.189    -10.25
   MgOH+           1.172e-05   8.258e-06    -4.931    -5.083    -0.152     (0)  
   MgHPO4          2.501e-07   2.921e-07    -6.602    -6.535     0.067     (0)  
   MgPO4-          1.694e-07   1.144e-07    -6.771    -6.942    -0.170     (0)  
   MgMoO4          4.908e-09   5.733e-09    -8.309    -8.242     0.067     (0)  
   MgH2PO4+        1.845e-09   1.246e-09    -8.734    -8.905    -0.170     (0)  
Mn(2)         3.773e-09
   Mn+2            2.197e-09   5.035e-10    -8.658    -9.298    -0.640    -16.36
   MnCl+           1.104e-09   7.320e-10    -8.957    -9.136    -0.178     -2.79
   MnCO3           2.561e-10   2.991e-10    -9.592    -9.524     0.067     (0)  
   MnCl2           9.762e-11   1.140e-10   -10.010    -9.943     0.067     85.89
   MnHCO3+         6.501e-11   4.312e-11   -10.187   -10.365    -0.178     (0)  
   MnSO4           3.382e-11   2.904e-11   -10.471   -10.537    -0.066     17.15
   MnCl3-          1.690e-11   1.121e-11   -10.772   -10.951    -0.178     45.79
   MnOH+           3.175e-12   2.106e-12   -11.498   -11.677    -0.178     (0)  
   MnF+            1.229e-13   8.154e-14   -12.910   -13.089    -0.178     (0)  
   Mn(OH)3-        5.184e-20   3.439e-20   -19.285   -19.464    -0.178     (0)  
   Mn(NO3)2        1.389e-20   1.622e-20   -19.857   -19.790     0.067     41.04
Mn(3)         5.517e-26
   Mn+3            5.517e-26   4.385e-27   -25.258   -26.358    -1.100     (0)  
Mo            6.440e-09
   MgMoO4          4.908e-09   5.733e-09    -8.309    -8.242     0.067     (0)  
   MoO4-2          1.230e-09   3.828e-10    -8.910    -9.417    -0.507     (0)  
   CaMoO4          3.016e-10   3.523e-10    -9.521    -9.453     0.067     (0)  
   HMoO4-          5.367e-14   4.008e-14   -13.270   -13.397    -0.127     (0)  
   H2MoO4          8.423e-20   9.838e-20   -19.075   -19.007     0.067     (0)  
N(-3)         1.724e-06
   NH4+            1.581e-06   8.888e-07    -5.801    -6.051    -0.250     18.48
   NH3             7.197e-08   8.406e-08    -7.143    -7.075     0.067     24.42
   NH4SO4-         7.071e-08   4.517e-08    -7.151    -7.345    -0.195     39.50
N(0)          5.725e-04
   N2              2.862e-04   3.343e-04    -3.543    -3.476     0.067     29.29
N(3)          8.396e-11
   NO2-            8.396e-11   4.927e-11   -10.076   -10.307    -0.232     25.71
N(5)          4.847e-06
   NO3-            4.847e-06   2.845e-06    -5.314    -5.546    -0.232     30.29
   Mn(NO3)2        1.389e-20   1.622e-20   -19.857   -19.790     0.067     41.04
Na            4.855e-01
   Na+             4.759e-01   3.416e-01    -0.322    -0.467    -0.144     -0.50
   NaSO4-          9.404e-03   6.764e-03    -2.027    -2.170    -0.143     21.72
   NaHCO3          1.283e-04   1.622e-04    -3.892    -3.790     0.102     17.66
   NaF             3.939e-06   4.601e-06    -5.405    -5.337     0.067      7.26
   Na2SO4          9.818e-07   1.126e-06    -6.008    -5.948     0.060     47.96
   NaHPO4-         2.780e-08   1.877e-08    -7.556    -7.726    -0.170     81.48
O(0)          4.377e-04
   O2              2.188e-04   2.556e-04    -3.660    -3.592     0.067     30.40
P             6.548e-07
   MgHPO4          2.501e-07   2.921e-07    -6.602    -6.535     0.067     (0)  
   MgPO4-          1.694e-07   1.144e-07    -6.771    -6.942    -0.170     (0)  
   HPO4-2          1.457e-07   2.819e-08    -6.837    -7.550    -0.713      9.69
   CaHPO4          3.278e-08   3.829e-08    -7.484    -7.417     0.067     (0)  
   NaHPO4-         2.780e-08   1.877e-08    -7.556    -7.726    -0.170     81.48
   CaPO4-          2.226e-08   1.503e-08    -7.652    -7.823    -0.170     (0)  
   H2PO4-          4.051e-09   2.736e-09    -8.392    -8.563    -0.170     34.72
   MgH2PO4+        1.845e-09   1.246e-09    -8.734    -8.905    -0.170     (0)  
   KHPO4-          5.241e-10   3.540e-10    -9.281    -9.451    -0.170     39.62
   CaH2PO4+        2.568e-10   1.734e-10    -9.590    -9.761    -0.170     (0)  
   PO4-3           1.372e-10   2.109e-12    -9.863   -11.676    -1.813    -17.20
   H3PO4           2.078e-15   2.427e-15   -14.682   -14.615     0.067     47.41
   FeHPO4          5.782e-16   6.753e-16   -15.238   -15.171     0.067     (0)  
   FeH2PO4+        1.222e-17   8.251e-18   -16.913   -17.084    -0.170     (0)  
   FeHPO4+         3.117e-22   2.068e-22   -21.506   -21.685    -0.178     (0)  
   FeH2PO4+2       9.648e-23   2.007e-23   -22.016   -22.698    -0.682     (0)  
S(6)          2.926e-02
   SO4-2           1.240e-02   2.254e-03    -1.907    -2.647    -0.740     17.13
   NaSO4-          9.404e-03   6.764e-03    -2.027    -2.170    -0.143     21.72
   MgSO4           6.047e-03   8.250e-03    -2.218    -2.084     0.135     -0.40
   CaSO4           7.270e-04   7.790e-04    -3.138    -3.108     0.030      7.22
   KSO4-           2.435e-04   2.209e-04    -3.613    -3.656    -0.042     35.15
   Mg(SO4)2-2      2.165e-04   6.126e-05    -3.664    -4.213    -0.548     48.72
   SrSO4           8.079e-06   9.436e-06    -5.093    -5.025     0.067     24.24
   Na2SO4          9.818e-07   1.126e-06    -6.008    -5.948     0.060     47.96
   LiSO4-          2.747e-07   1.822e-07    -6.561    -6.739    -0.178     (0)  
   NH4SO4-         7.071e-08   4.517e-08    -7.151    -7.345    -0.195     39.50
   HSO4-           1.768e-09   1.321e-09    -8.752    -8.879    -0.127     40.96
   CaHSO4+         5.267e-11   3.934e-11   -10.278   -10.405    -0.127     (0)  
   MnSO4           3.382e-11   2.904e-11   -10.471   -10.537    -0.066     17.15
   FeSO4           2.065e-12   2.412e-12   -11.685   -11.618     0.067     30.28
   AlSO4+          3.606e-17   2.332e-17   -16.443   -16.632    -0.189     (0)  
   Al(SO4)2-       2.570e-18   1.663e-18   -17.590   -17.779    -0.189     (0)  
   FeSO4+          1.016e-18   6.736e-19   -17.993   -18.172    -0.178     (0)  
   FeHSO4+         1.279e-19   9.555e-20   -18.893   -19.020    -0.127     (0)  
   Fe(SO4)2-       4.449e-20   3.322e-20   -19.352   -19.479    -0.127     (0)  
   AlHSO4+2        4.006e-26   1.246e-26   -25.397   -25.904    -0.507     (0)  
   FeHSO4+2        3.494e-26   1.087e-26   -25.457   -25.964    -0.507     (0)  
Si            7.383e-05
   H4SiO4          7.062e-05   8.249e-05    -4.151    -4.084     0.067     52.08
   H3SiO4-         3.210e-06   2.019e-06    -5.494    -5.695    -0.201     28.72
   H2SiO4-2        1.096e-10   2.279e-11    -9.960   -10.642    -0.682     (0)  
   SiF6-2          1.514e-34   2.930e-35   -33.820   -34.533    -0.713     45.55
Sr            9.629e-05
   Sr+2            8.766e-05   2.147e-05    -4.057    -4.668    -0.611    -16.43
   SrSO4           8.079e-06   9.436e-06    -5.093    -5.025     0.067     24.24
   SrHCO3+         4.672e-07   3.155e-07    -6.330    -6.501    -0.170     (0)  
   SrCO3           8.775e-08   1.025e-07    -7.057    -6.989     0.067    -14.13
   SrOH+           2.701e-10   1.792e-10    -9.568    -9.747    -0.178     (0)  

------------------------------Saturation indices-------------------------------

  Phase               SI** log IAP   log K(298 K,   1 atm)

  Al(OH)3(a)       -3.65      7.15   10.80  Al(OH)3
  Albite           -1.95    -19.95  -18.00  NaAlSi3O8
  Alunite          -9.27    -10.67   -1.40  KAl3(SO4)2(OH)6
  Anhydrite        -0.94     -5.25   -4.31  CaSO4
  Anorthite        -5.60    -25.31  -19.71  CaAl2Si2O8
  Aragonite         0.60     -7.73   -8.34  CaCO3
  Arcanite         -5.15     -7.03   -1.88  K2SO4
  Barite           -0.12    -10.01   -9.89  BaSO4
  Ca-Montmorillonite  -3.75    -48.77  -45.03  Ca0.165Al2.33Si3.67O10(OH)2
  Calcite           0.72     -7.73   -8.45  CaCO3
  Celestite        -0.66     -7.32   -6.66  SrSO4
  Chalcedony       -0.52     -4.07   -3.55  SiO2
  Chlorite(14A)     6.59     74.97   68.38  Mg5Al2Si3O10(OH)8
  Chrysotile        3.38     35.58   32.20  Mg3Si2O5(OH)4
  CO2(g)           -3.41     -4.88   -1.47  CO2	 Pressure   0.0 atm, phi 0.996
  Dolomite          2.37    -14.71  -17.08  CaMg(CO3)2
  Epsomite         -2.82     -4.56   -1.74  MgSO4:7H2O
  Fe(OH)3(a)        0.18      5.07    4.89  Fe(OH)3
  Fluorite         -1.27    -11.87  -10.60  CaF2
  Gibbsite         -0.96      7.15    8.11  Al(OH)3
  Goethite          6.08      5.08   -1.00  FeOOH
  Gypsum           -0.72     -5.27   -4.55  CaSO4:2H2O
  H2(g)           -33.39    -36.49   -3.10  H2
  H2O(g)           -1.51     -0.01    1.50  H2O
  Halite           -2.48     -0.91    1.57  NaCl
  Hausmannite      -6.30     54.73   61.03  Mn3O4
  Hematite         14.17     10.17   -4.01  Fe2O3
  Hexahydrite      -2.99     -4.55   -1.57  MgSO4:6H2O
  Hydroxyapatite    0.61     -2.81   -3.42  Ca5(PO4)3OH
  Illite           -2.37    -42.64  -40.27  K0.6Mg0.25Al2.3Si3.5O10(OH)2
  Jarosite-K       -7.70    -16.91   -9.21  KFe3(SO4)2(OH)6
  K-feldspar       -1.11    -21.68  -20.57  KAlSi3O8
  K-mica            2.60     15.30   12.70  KAl3Si3O10(OH)2
  Kaolinite        -1.26      6.17    7.43  Al2Si2O5(OH)4
  Kieserite        -3.35     -4.51   -1.16  MgSO4:H2O
  Manganite        -1.55     23.79   25.34  MnOOH
  Melanterite     -11.72    -13.93   -2.21  FeSO4:7H2O
  Mirabilite       -2.96     -3.67   -0.71  Na2SO4:10H2O
  N2(g)            -0.30     -3.48   -3.18  N2	 Pressure   0.5 atm, phi 1.000
  NH3(g)           -8.87     -7.08    1.80  NH3
  O2(g)            -0.70     -3.59   -2.89  O2	 Pressure   0.2 atm, phi 1.000
  Pyrochroite      -8.08      7.12   15.20  Mn(OH)2
  Pyrolusite       -0.92     40.46   41.38  MnO2:H2O
  Quartz           -0.09     -4.07   -3.98  SiO2
  Rhodochrosite    -3.29    -14.42  -11.13  MnCO3
  Sepiolite         1.16     16.92   15.76  Mg2Si3O7.5OH:3H2O
  Sepiolite(d)     -1.74     16.92   18.66  Mg2Si3O7.5OH:3H2O
  Siderite         -5.46    -16.35  -10.89  FeCO3
  SiO2(a)          -1.35     -4.07   -2.71  SiO2
  Strontianite     -0.52     -9.79   -9.27  SrCO3
  Sylvite          -3.54     -2.64    0.90  KCl
  Talc              6.06     27.46   21.40  Mg3Si4O10(OH)2
  Thenardite       -4.23     -3.58    0.65  Na2SO4
  Vivianite       -21.08    -57.08  -36.00  Fe3(PO4)2:8H2O
  Witherite        -3.93    -12.49   -8.56  BaCO3

**For a gas, SI = log10(fugacity). Fugacity = pressure * phi / 1 atm.
  For ideal gases, phi = 1.

------------------------------------------------------
Beginning of initial surface-composition calculations.
------------------------------------------------------

Surface 1.	

Diffuse Double Layer Surface-Complexation Model

Surf          
	 -4.971e-04  Surface charge, eq
	 -1.357e-01  sigma, C/m²
	 -5.873e-02  psi, V
	  2.286e+00  -F*psi/RT
	  9.835e+00  exp(-F*psi/RT)
	  1.071e+03  specific area, m²/g
	  3.534e+02  m² for   3.300e-01 g


Surf          
	  1.000e-03  moles
	                                   Mole                     Log
	Species               Moles    Fraction    Molality    Molality

	SurfO-            5.452e-04       0.545   5.452e-04      -3.263
	SurfOH            4.067e-04       0.407   4.067e-04      -3.391
	SurfOH2+          4.809e-05       0.048   4.809e-05      -4.318
	SurfOHMoO4-2      2.551e-13       0.000   2.551e-13     -12.593
	SurfMoO4-         6.138e-14       0.000   6.138e-14     -13.212

-----------------------------------------
Beginning of batch-reaction calculations.
-----------------------------------------

Reaction step 1.

Using solution 1.	Seawater
Using exchange 1.	
Using surface 1.	
Using pure phase assemblage 1.	Complete phase assemblage
Using gas phase 1.	
Using temperature 1.	
Using reaction 1.	Reaction test

Reaction 1.	Reaction test

	  5.000e-01 moles of the following reaction have been added:

	                 Relative
	Reactant            moles

	HCl                  1.00000

	                 Relative
	Element             moles
	Cl                   1.00000
	H                    1.00000

-----------------------------------Gas phase-----------------------------------

Total pressure:  1.00      atmospheres          (Peng-Robinson calculation)
    Gas volume:   8.40e-01 liters
  Molar volume:   2.44e+01 liters/mole
   P * Vm / RT:  0.99916  (Compressibility Factor Z) 

                                                        Moles in gas
                                            ----------------------------------
Component         log P           P    phi     Initial       Final       Delta

CH4(g)            -5.85   1.414e-06  0.998   4.089e-08   4.858e-08   7.684e-09
CO2(g)            -0.94   1.145e-01  0.996   1.292e-05   3.934e-03   3.921e-03
N2(g)             -0.05   8.855e-01  1.000   3.190e-02   3.042e-02  -1.481e-03
O2(g)            -67.87   1.354e-68  0.999   8.179e-03   0.000e+00  -8.179e-03

-------------------------------Phase assemblage--------------------------------

                                                      Moles in assemblage
Phase               SI  log IAP  log K(T, P)   Initial       Final       Delta

Anhydrite        -0.21    -4.52     -4.31    1.000e+00           0  -1.000e+00
Aragonite        -0.11    -8.45     -8.34    2.500e+00           0  -2.500e+00
Calcite           0.00    -8.45     -8.45    1.000e+00   3.803e+00   2.803e+00
Chalcedony        0.00    -3.55     -3.55    2.100e+00   9.989e-02  -2.000e+00
Dolomite          0.00   -17.08    -17.08    1.000e+00   7.077e-01  -2.923e-01
FeS(ppt)          0.00    -3.91     -3.92    1.000e+00   9.648e-01  -3.524e-02
Gibbsite         -0.85     7.26      8.11    2.000e+00           0  -2.000e+00
Goethite         -0.00    -1.00     -1.00    1.000e+00   7.598e-01  -2.402e-01
Gypsum            0.00    -4.55     -4.55    1.000e+00   2.051e+00   1.051e+00
Kaolinite        -0.00     7.43      7.43    5.000e+00   6.000e+00   1.000e+00
Siderite          0.00   -10.89    -10.89    1.000e+00   1.273e+00   2.726e-01
Sulfur           -2.41     2.48      4.88    0.000e+00           0   0.000e+00

------------------------------Surface composition------------------------------

Diffuse Double Layer Surface-Complexation Model

Surf          
	  2.717e-04  Surface charge, eq
	  7.419e-02  sigma, C/m²
	  2.637e-02  psi, V
	 -1.026e+00  -F*psi/RT
	  3.583e-01  exp(-F*psi/RT)
	  1.071e+03  specific area, m²/g
	  3.534e+02  m² for   3.300e-01 g


Surf          
	  1.000e-03  moles
	                                   Mole                     Log
	Species               Moles    Fraction    Molality    Molality

	SurfOH            5.108e-04       0.511   5.177e-04      -3.286
	SurfOH2+          3.804e-04       0.380   3.856e-04      -3.414
	SurfO-            1.087e-04       0.109   1.102e-04      -3.958
	SurfMoO4-         1.517e-10       0.000   1.538e-10      -9.813
	SurfOHMoO4-2      9.881e-11       0.000   1.001e-10      -9.999

-----------------------------Exchange composition------------------------------

X                3.000e+00 mol

	                               Equiv-    Equivalent      Log 
	Species             Moles      alents      Fraction     Gamma

	NaX               9.818e-01   9.818e-01   3.273e-01    -0.119
	CaX2              7.556e-01   1.511e+00   5.037e-01    -0.590
	MgX2              2.459e-01   4.918e-01   1.639e-01    -0.490
	KX                9.597e-03   9.597e-03   3.199e-03    -0.234
	NH4X              2.135e-03   2.135e-03   7.117e-04     0.000
	FeX2              1.623e-03   3.246e-03   1.082e-03    -0.724
	SrX2              8.021e-05   1.604e-04   5.347e-05    -0.624
	LiX               1.674e-05   1.674e-05   5.580e-06    -0.181
	BaX2              1.332e-07   2.663e-07   8.878e-08    -0.731
	MnX2              1.940e-09   3.879e-09   1.293e-09    -0.724
	AlOHX2            8.805e-10   1.761e-09   5.870e-10     0.063
	AlX3              2.528e-10   7.585e-10   2.528e-10    -1.207

-----------------------------Solution composition------------------------------

	Elements           Molality       Moles

	Al                6.216e-08   6.133e-08
	B                 2.376e-03   2.344e-03
	Ba                1.800e-08   1.776e-08
	Br                8.848e-04   8.730e-04
	C                 6.852e-03   6.761e-03
	Ca                1.957e-01   1.931e-01
	Cl                1.080e+00   1.066e+00
	F                 7.686e-05   7.583e-05
	Fe                1.175e-03   1.160e-03
	K                 9.948e-04   9.816e-04
	Li                1.043e-05   1.030e-05
	Mg                1.029e-01   1.015e-01
	Mn                1.858e-09   1.834e-09
	Mo                6.273e-09   6.190e-09
	N                 1.425e-03   1.406e-03
	Na                5.104e-01   5.036e-01
	P                 6.636e-07   6.548e-07
	S                 1.369e-02   1.351e-02
	Si                1.910e-04   1.885e-04
	Sr                1.629e-05   1.608e-05

----------------------------Description of solution----------------------------

                                       pH  =   5.982      Charge balance
                                       pe  =  -2.150      Adjusted to redox equilibrium
      Specific Conductance (µS/cm,  25°C)  = 85260
                          Density (g/cm³)  =   1.04266
                               Volume (L)  =   1.00539
                        Viscosity (mPa s)  =   1.03240
                        Activity of water  =   0.968
                 Ionic strength (mol/kgw)  =   1.392e+00
                       Mass of water (kg)  =   9.867e-01
                 Total alkalinity (eq/kg)  =   3.719e-03
                       Total CO2 (mol/kg)  =   6.852e-03
                         Temperature (°C)  =  25.00
                  Electrical balance (eq)  =  -7.045e-04
 Percent error, 100*(Cat-|An|)/(Cat+|An|)  =  -0.03
                               Iterations  =  24
                                  Total H  = 1.095482e+02
                                  Total O  = 5.484622e+01

----------------------------Distribution of species----------------------------

                                               Log       Log       Log    mole V
   Species          Molality    Activity  Molality  Activity     Gamma   cm³/mol

   H+              1.419e-06   1.042e-06    -5.848    -5.982    -0.134      0.00
   OH-             1.692e-08   9.401e-09    -7.771    -8.027    -0.255     -1.51
   H2O             5.551e+01   9.676e-01     1.744    -0.014     0.000     18.07
Al            6.216e-08
   AlF2+           3.519e-08   2.248e-08    -7.454    -7.648    -0.195     (0)  
   AlF+2           1.919e-08   3.198e-09    -7.717    -8.495    -0.778     (0)  
   AlF3            2.881e-09   3.970e-09    -8.540    -8.401     0.139     (0)  
   Al(OH)2+        2.397e-09   1.531e-09    -8.620    -8.815    -0.195     (0)  
   AlOH+2          1.262e-09   2.104e-10    -8.899    -9.677    -0.778    -26.43
   Al(OH)4-        6.078e-10   3.668e-10    -9.216    -9.436    -0.219     (0)  
   Al+3            3.669e-10   2.280e-11    -9.435   -10.642    -1.207    -39.76
   Al(OH)3         1.521e-10   2.096e-10    -9.818    -9.679     0.139     (0)  
   AlSO4+          7.301e-11   4.407e-11   -10.137   -10.356    -0.219     (0)  
   AlF4-           3.673e-11   2.217e-11   -10.435   -10.654    -0.219     (0)  
   Al(SO4)2-       1.411e-12   8.517e-13   -11.850   -12.070    -0.219     (0)  
   AlHSO4+2        7.280e-18   4.071e-18   -17.138   -17.390    -0.252     (0)  
B             2.376e-03
   H3BO3           2.374e-03   3.270e-03    -2.625    -2.485     0.139     39.23
   H2BO3-          2.089e-06   1.806e-06    -5.680    -5.743    -0.063     (0)  
   BF(OH)3-        2.112e-08   1.826e-08    -7.675    -7.738    -0.063     (0)  
   BF2(OH)2-       3.417e-11   2.955e-11   -10.466   -10.529    -0.063     (0)  
   BF3OH-          5.658e-16   4.893e-16   -15.247   -15.310    -0.063     (0)  
   BF4-            3.481e-20   3.010e-20   -19.458   -19.521    -0.063     (0)  
Ba            1.800e-08
   Ba+2            1.792e-08   4.883e-09    -7.747    -8.311    -0.565    -10.13
   BaHCO3+         8.677e-11   7.503e-11   -10.062   -10.125    -0.063     (0)  
   BaCO3           1.321e-13   1.820e-13   -12.879   -12.740     0.139    -10.70
   BaOH+           2.463e-16   1.537e-16   -15.609   -15.813    -0.205     (0)  
Br            8.848e-04
   Br-             8.848e-04   5.386e-04    -3.053    -3.269    -0.216     25.50
C(-4)         1.617e-09
   CH4             1.617e-09   2.227e-09    -8.791    -8.652     0.139     35.46
C(4)          6.852e-03
   CO2             3.141e-03   3.881e-03    -2.503    -2.411     0.092     34.79
   HCO3-           2.447e-03   1.603e-03    -2.611    -2.795    -0.184     30.60
   MgHCO3+         1.034e-03   6.008e-04    -2.985    -3.221    -0.236      5.88
   NaHCO3          1.885e-04   3.058e-04    -3.725    -3.515     0.210     17.66
   FeHCO3+         3.309e-05   2.862e-05    -4.480    -4.543    -0.063     (0)  
   CaCO3           4.347e-06   5.989e-06    -5.362    -5.223     0.139    -14.60
   MgCO3           1.601e-06   2.206e-06    -5.796    -5.656     0.139    -17.09
   CO3-2           4.330e-07   7.217e-08    -6.363    -7.142    -0.778      1.22
   KHCO3           2.999e-07   4.132e-07    -6.523    -6.384     0.139     21.42
   FeCO3           2.243e-07   3.090e-07    -6.649    -6.510     0.139     (0)  
   (CO2)2          1.982e-07   2.448e-07    -6.703    -6.611     0.092     68.75
   SrHCO3+         1.445e-07   9.230e-08    -6.840    -7.035    -0.195     (0)  
   CaHCO3+         1.053e-08   6.944e-09    -7.977    -8.158    -0.181     10.00
   SrCO3           1.259e-10   1.734e-10    -9.900    -9.761     0.139    -14.13
   BaHCO3+         8.677e-11   7.503e-11   -10.062   -10.125    -0.063     (0)  
   MnHCO3+         4.063e-11   2.535e-11   -10.391   -10.596    -0.205     (0)  
   MnCO3           7.383e-13   1.017e-12   -12.132   -11.993     0.139     (0)  
   BaCO3           1.321e-13   1.820e-13   -12.879   -12.740     0.139    -10.70
Ca            1.957e-01
   Ca+2            1.920e-01   4.940e-02    -0.717    -1.306    -0.590    -16.24
   CaSO4           3.652e-03   4.211e-03    -2.437    -2.376     0.062      7.22
   CaCO3           4.347e-06   5.989e-06    -5.362    -5.223     0.139    -14.60
   CaH2PO4+        1.637e-07   1.046e-07    -6.786    -6.981    -0.195     (0)  
   CaHPO4          9.694e-08   1.336e-07    -7.013    -6.874     0.139     (0)  
   CaHSO4+         4.252e-08   3.677e-08    -7.371    -7.435    -0.063     (0)  
   CaHCO3+         1.053e-08   6.944e-09    -7.977    -8.158    -0.181     10.00
   CaOH+           8.806e-09   7.615e-09    -8.055    -8.118    -0.063     (0)  
   CaMoO4          2.087e-09   2.875e-09    -8.680    -8.541     0.139     (0)  
   CaPO4-          4.747e-10   3.033e-10    -9.324    -9.518    -0.195     (0)  
Cl            1.080e+00
   Cl-             1.080e+00   6.413e-01     0.033    -0.193    -0.226     19.10
   FeCl+           1.828e-04   1.580e-04    -3.738    -3.801    -0.063     (0)  
   HCl             5.886e-08   2.302e-07    -7.230    -6.638     0.592     20.36
   MnCl+           7.429e-10   4.636e-10    -9.129    -9.334    -0.205     -2.74
   MnCl2           9.420e-11   1.298e-10   -10.026    -9.887     0.139     85.89
   MnCl3-          3.674e-11   2.292e-11   -10.435   -10.640    -0.205     47.94
   FeCl+2          1.543e-17   2.339e-18   -16.812   -17.631    -0.819     (0)  
   FeCl2+          1.074e-17   6.701e-18   -16.969   -17.174    -0.205     (0)  
   FeCl3           3.119e-19   4.297e-19   -18.506   -18.367     0.139     (0)  
F             7.686e-05
   MgF+            4.918e-05   2.968e-05    -4.308    -4.527    -0.219    -10.20
   F-              2.525e-05   1.403e-05    -4.598    -4.853    -0.255     -0.24
   NaF             2.261e-06   3.115e-06    -5.646    -5.507     0.139      7.26
   AlF2+           3.519e-08   2.248e-08    -7.454    -7.648    -0.195     (0)  
   FeF+            2.895e-08   2.504e-08    -7.538    -7.601    -0.063     (0)  
   BF(OH)3-        2.112e-08   1.826e-08    -7.675    -7.738    -0.063     (0)  
   AlF+2           1.919e-08   3.198e-09    -7.717    -8.495    -0.778     (0)  
   HF              1.591e-08   2.191e-08    -7.798    -7.659     0.139     12.50
   AlF3            2.881e-09   3.970e-09    -8.540    -8.401     0.139     (0)  
   AlF4-           3.673e-11   2.217e-11   -10.435   -10.654    -0.219     (0)  
   BF2(OH)2-       3.417e-11   2.955e-11   -10.466   -10.529    -0.063     (0)  
   HF2-            1.364e-12   1.179e-12   -11.865   -11.928    -0.063     23.14
   MnF+            2.759e-14   1.722e-14   -13.559   -13.764    -0.205     (0)  
   BF3OH-          5.658e-16   4.893e-16   -15.247   -15.310    -0.063     (0)  
   FeF+2           1.771e-17   2.685e-18   -16.752   -17.571    -0.819     (0)  
   FeF2+           2.402e-18   1.499e-18   -17.619   -17.824    -0.205     (0)  
   BF4-            3.481e-20   3.010e-20   -19.458   -19.521    -0.063     (0)  
   FeF3            2.419e-20   3.332e-20   -19.616   -19.477     0.139     (0)  
   SiF6-2          2.687e-26   4.074e-27   -25.571   -26.390    -0.819     46.90
Fe(2)         1.175e-03
   Fe+2            9.450e-04   1.785e-04    -3.025    -3.748    -0.724    -20.18
   FeCl+           1.828e-04   1.580e-04    -3.738    -3.801    -0.063     (0)  
   FeHCO3+         3.309e-05   2.862e-05    -4.480    -4.543    -0.063     (0)  
   FeSO4           1.408e-05   1.940e-05    -4.851    -4.712     0.139     30.28
   FeCO3           2.243e-07   3.090e-07    -6.649    -6.510     0.139     (0)  
   FeOH+           8.402e-08   5.243e-08    -7.076    -7.280    -0.205     (0)  
   Fe(HS)2         5.818e-08   8.015e-08    -7.235    -7.096     0.139     (0)  
   FeF+            2.895e-08   2.504e-08    -7.538    -7.601    -0.063     (0)  
   FeH2PO4+        1.159e-08   7.403e-09    -7.936    -8.131    -0.195     (0)  
   FeHPO4          2.544e-09   3.504e-09    -8.595    -8.455     0.139     (0)  
   FeHSO4+         1.536e-10   1.329e-10    -9.813    -9.877    -0.063     (0)  
   Fe(HS)3-        7.163e-12   6.195e-12   -11.145   -11.208    -0.063     (0)  
   Fe(OH)2         3.008e-13   4.145e-13   -12.522   -12.383     0.139     (0)  
   Fe(OH)3-        2.292e-17   1.430e-17   -16.640   -16.845    -0.205     (0)  
Fe(3)         3.728e-13
   Fe(OH)2+        3.486e-13   2.227e-13   -12.458   -12.652    -0.195     (0)  
   Fe(OH)3         1.934e-14   2.665e-14   -13.713   -13.574     0.139     (0)  
   FeOH+2          4.777e-15   7.242e-16   -14.321   -15.140    -0.819     (0)  
   Fe(OH)4-        3.533e-17   2.257e-17   -16.452   -16.646    -0.195     (0)  
   FeF+2           1.771e-17   2.685e-18   -16.752   -17.571    -0.819     (0)  
   FeCl+2          1.543e-17   2.339e-18   -16.812   -17.631    -0.819     (0)  
   FeCl2+          1.074e-17   6.701e-18   -16.969   -17.174    -0.205     (0)  
   FeF2+           2.402e-18   1.499e-18   -17.619   -17.824    -0.205     (0)  
   Fe+3            1.944e-18   1.208e-19   -17.711   -18.918    -1.207     (0)  
   FeSO4+          1.297e-18   8.093e-19   -17.887   -18.092    -0.205     (0)  
   FeCl3           3.119e-19   4.297e-19   -18.506   -18.367     0.139     (0)  
   FeF3            2.419e-20   3.332e-20   -19.616   -19.477     0.139     (0)  
   FeH2PO4+2       1.614e-20   2.689e-21   -19.792   -20.570    -0.778     (0)  
   Fe(SO4)2-       1.251e-20   1.082e-20   -19.903   -19.966    -0.063     (0)  
   FeHPO4+         2.569e-22   1.603e-22   -21.590   -21.795    -0.205     (0)  
   FeHSO4+2        4.038e-24   2.258e-24   -23.394   -23.646    -0.252     (0)  
   Fe2(OH)2+4      1.444e-28   1.412e-29   -27.840   -28.850    -1.010     (0)  
   Fe3(OH)4+5      2.485e-38   6.569e-40   -37.605   -39.182    -1.578     (0)  
H(0)          2.187e-11
   H2              1.094e-11   1.531e-11   -10.961   -10.815     0.146     14.99
K             9.948e-04
   K+              9.900e-04   5.770e-04    -3.004    -3.239    -0.234     10.04
   KSO4-           4.568e-06   5.365e-06    -5.340    -5.270     0.070     40.64
   KHCO3           2.999e-07   4.132e-07    -6.523    -6.384     0.139     21.42
   KHPO4-          8.682e-12   5.547e-12   -11.061   -11.256    -0.195     40.78
Li            1.043e-05
   Li+             1.040e-05   6.860e-06    -4.983    -5.164    -0.181     -0.44
   LiSO4-          2.933e-08   1.830e-08    -7.533    -7.738    -0.205     (0)  
Mg            1.029e-01
   Mg+2            9.904e-02   3.203e-02    -1.004    -1.494    -0.490    -19.94
   MgSO4           2.701e-03   5.126e-03    -2.569    -2.290     0.278     -0.40
   MgHCO3+         1.034e-03   6.008e-04    -2.985    -3.221    -0.236      5.88
   MgF+            4.918e-05   2.968e-05    -4.308    -4.527    -0.219    -10.20
   Mg(SO4)2-2      3.949e-05   1.032e-05    -4.404    -4.986    -0.583     51.07
   MgCO3           1.601e-06   2.206e-06    -5.796    -5.656     0.139    -17.09
   MgOH+           1.601e-07   1.080e-07    -6.796    -6.967    -0.171     (0)  
   MgH2PO4+        1.352e-07   8.636e-08    -6.869    -7.064    -0.195     (0)  
   MgHPO4          8.499e-08   1.171e-07    -7.071    -6.931     0.139     (0)  
   MgMoO4          3.903e-09   5.377e-09    -8.409    -8.269     0.139     (0)  
   MgPO4-          4.152e-10   2.653e-10    -9.382    -9.576    -0.195     (0)  
Mn(2)         1.858e-09
   Mn+2            9.393e-10   1.774e-10    -9.027    -9.751    -0.724    -15.61
   MnCl+           7.429e-10   4.636e-10    -9.129    -9.334    -0.205     -2.74
   MnCl2           9.420e-11   1.298e-10   -10.026    -9.887     0.139     85.89
   MnHCO3+         4.063e-11   2.535e-11   -10.391   -10.596    -0.205     (0)  
   MnCl3-          3.674e-11   2.292e-11   -10.435   -10.640    -0.205     47.94
   MnSO4           3.798e-12   2.775e-12   -11.420   -11.557    -0.136     17.15
   MnCO3           7.383e-13   1.017e-12   -12.132   -11.993     0.139     (0)  
   MnF+            2.759e-14   1.722e-14   -13.559   -13.764    -0.205     (0)  
   MnOH+           6.788e-15   4.236e-15   -14.168   -14.373    -0.205     (0)  
   Mn(OH)3-        3.611e-27   2.253e-27   -26.442   -26.647    -0.205     (0)  
   Mn(NO3)2        0.000e+00   0.000e+00  -169.395  -169.256     0.139     41.04
Mn(3)         6.251e-37
   Mn+3            6.251e-37   3.884e-38   -36.204   -37.411    -1.207     (0)  
Mo            6.273e-09
   MgMoO4          3.903e-09   5.377e-09    -8.409    -8.269     0.139     (0)  
   CaMoO4          2.087e-09   2.875e-09    -8.680    -8.541     0.139     (0)  
   MoO4-2          2.802e-10   1.567e-10    -9.553    -9.805    -0.252     (0)  
   HMoO4-          3.280e-12   2.836e-12   -11.484   -11.547    -0.063     (0)  
   H2MoO4          8.737e-16   1.204e-15   -15.059   -14.919     0.139     (0)  
N(-3)         5.675e-04
   NH4+            5.604e-04   2.773e-04    -3.251    -3.557    -0.306     18.66
   NH4SO4-         7.023e-06   3.820e-06    -5.153    -5.418    -0.264     42.19
   NH3             1.101e-07   1.517e-07    -6.958    -6.819     0.139     24.42
N(0)          8.573e-04
   N2              4.287e-04   5.906e-04    -3.368    -3.229     0.139     29.29
N(3)          0.000e+00
   NO2-            0.000e+00   0.000e+00   -58.855   -59.133    -0.278     26.05
N(5)          0.000e+00
   NO3-            0.000e+00   0.000e+00   -79.774   -80.053    -0.278     30.70
   Mn(NO3)2        0.000e+00   0.000e+00  -169.395  -169.256     0.139     41.04
Na            5.104e-01
   Na+             5.076e-01   3.859e-01    -0.294    -0.413    -0.119     -0.11
   NaSO4-          2.646e-03   2.072e-03    -2.577    -2.684    -0.106     24.25
   NaHCO3          1.885e-04   3.058e-04    -3.725    -3.515     0.210     17.66
   NaF             2.261e-06   3.115e-06    -5.646    -5.507     0.139      7.26
   Na2SO4          2.936e-07   3.899e-07    -6.532    -6.409     0.123     47.96
   NaHPO4-         5.808e-09   3.711e-09    -8.236    -8.431    -0.195    132.12
O(0)          0.000e+00
   O2              0.000e+00   0.000e+00   -70.900   -70.761     0.139     30.40
P             6.636e-07
   CaH2PO4+        1.637e-07   1.046e-07    -6.786    -6.981    -0.195     (0)  
   MgH2PO4+        1.352e-07   8.636e-08    -6.869    -7.064    -0.195     (0)  
   H2PO4-          1.295e-07   8.274e-08    -6.888    -7.082    -0.195     35.87
   CaHPO4          9.694e-08   1.336e-07    -7.013    -6.874     0.139     (0)  
   MgHPO4          8.499e-08   1.171e-07    -7.071    -6.931     0.139     (0)  
   HPO4-2          3.252e-08   4.931e-09    -7.488    -8.307    -0.819     11.04
   FeH2PO4+        1.159e-08   7.403e-09    -7.936    -8.131    -0.195     (0)  
   NaHPO4-         5.808e-09   3.711e-09    -8.236    -8.431    -0.195    132.12
   FeHPO4          2.544e-09   3.504e-09    -8.595    -8.455     0.139     (0)  
   CaPO4-          4.747e-10   3.033e-10    -9.324    -9.518    -0.195     (0)  
   MgPO4-          4.152e-10   2.653e-10    -9.382    -9.576    -0.195     (0)  
   H3PO4           9.212e-12   1.269e-11   -11.036   -10.897     0.139     47.41
   KHPO4-          8.682e-12   5.547e-12   -11.061   -11.256    -0.195     40.78
   PO4-3           2.835e-13   2.134e-15   -12.547   -14.671    -2.123    -14.87
   FeH2PO4+2       1.614e-20   2.689e-21   -19.792   -20.570    -0.778     (0)  
   FeHPO4+         2.569e-22   1.603e-22   -21.590   -21.795    -0.205     (0)  
S(-2)         6.087e-06
   H2S             4.693e-06   6.465e-06    -5.329    -5.189     0.139     36.27
   HS-             1.278e-06   7.098e-07    -5.894    -6.149    -0.255     21.69
   Fe(HS)2         5.818e-08   8.015e-08    -7.235    -7.096     0.139     (0)  
   Fe(HS)3-        7.163e-12   6.195e-12   -11.145   -11.208    -0.063     (0)  
   (H2S)2          1.599e-12   2.203e-12   -11.796   -11.657     0.139     30.09
   S-2             5.427e-13   8.229e-14   -12.265   -13.085    -0.819     (0)  
S(6)          1.369e-02
   SO4-2           4.582e-03   6.112e-04    -2.339    -3.214    -0.875     19.32
   CaSO4           3.652e-03   4.211e-03    -2.437    -2.376     0.062      7.22
   MgSO4           2.701e-03   5.126e-03    -2.569    -2.290     0.278     -0.40
   NaSO4-          2.646e-03   2.072e-03    -2.577    -2.684    -0.106     24.25
   Mg(SO4)2-2      3.949e-05   1.032e-05    -4.404    -4.986    -0.583     51.07
   FeSO4           1.408e-05   1.940e-05    -4.851    -4.712     0.139     30.28
   NH4SO4-         7.023e-06   3.820e-06    -5.153    -5.418    -0.264     42.19
   KSO4-           4.568e-06   5.365e-06    -5.340    -5.270     0.070     40.64
   SrSO4           3.256e-07   4.485e-07    -6.487    -6.348     0.139     24.24
   Na2SO4          2.936e-07   3.899e-07    -6.532    -6.409     0.123     47.96
   HSO4-           7.159e-08   6.190e-08    -7.145    -7.208    -0.063     41.24
   CaHSO4+         4.252e-08   3.677e-08    -7.371    -7.435    -0.063     (0)  
   LiSO4-          2.933e-08   1.830e-08    -7.533    -7.738    -0.205     (0)  
   FeHSO4+         1.536e-10   1.329e-10    -9.813    -9.877    -0.063     (0)  
   AlSO4+          7.301e-11   4.407e-11   -10.137   -10.356    -0.219     (0)  
   MnSO4           3.798e-12   2.775e-12   -11.420   -11.557    -0.136     17.15
   Al(SO4)2-       1.411e-12   8.517e-13   -11.850   -12.070    -0.219     (0)  
   AlHSO4+2        7.280e-18   4.071e-18   -17.138   -17.390    -0.252     (0)  
   FeSO4+          1.297e-18   8.093e-19   -17.887   -18.092    -0.205     (0)  
   Fe(SO4)2-       1.251e-20   1.082e-20   -19.903   -19.966    -0.063     (0)  
   FeHSO4+2        4.038e-24   2.258e-24   -23.394   -23.646    -0.252     (0)  
Si            1.910e-04
   H4SiO4          1.909e-04   2.631e-04    -3.719    -3.580     0.139     52.08
   H3SiO4-         6.410e-08   3.723e-08    -7.193    -7.429    -0.236     29.06
   H2SiO4-2        1.459e-14   2.431e-15   -13.836   -14.614    -0.778     (0)  
   SiF6-2          2.687e-26   4.074e-27   -25.571   -26.390    -0.819     46.90
Sr            1.629e-05
   Sr+2            1.582e-05   3.764e-06    -4.801    -5.424    -0.624    -15.84
   SrSO4           3.256e-07   4.485e-07    -6.487    -6.348     0.139     24.24
   SrHCO3+         1.445e-07   9.230e-08    -6.840    -7.035    -0.195     (0)  
   SrCO3           1.259e-10   1.734e-10    -9.900    -9.761     0.139    -14.13
   SrOH+           2.873e-13   1.793e-13   -12.542   -12.746    -0.205     (0)  

------------------------------Saturation indices-------------------------------

  Phase               SI** log IAP   log K(298 K,   1 atm)

  Al(OH)3(a)       -3.54      7.26   10.80  Al(OH)3
  Albite           -2.47    -20.47  -18.00  NaAlSi3O8
  Alunite          -4.39     -5.79   -1.40  KAl3(SO4)2(OH)6
  Anhydrite        -0.21     -4.52   -4.31  CaSO4
  Anorthite        -7.51    -27.22  -19.71  CaAl2Si2O8
  Aragonite        -0.11     -8.45   -8.34  CaCO3
  Arcanite         -7.81     -9.69   -1.88  K2SO4
  Barite           -1.64    -11.53   -9.89  BaSO4
  Ca-Montmorillonite  -2.10    -47.13  -45.03  Ca0.165Al2.33Si3.67O10(OH)2
  Calcite           0.00     -8.45   -8.45  CaCO3
  Celestite        -1.98     -8.64   -6.66  SrSO4
  CH4(g)           -5.85     -8.65   -2.80  CH4	 Pressure   0.0 atm, phi 0.998
  Chalcedony        0.00     -3.55   -3.55  SiO2
  Chlorite(14A)   -12.25     56.13   68.38  Mg5Al2Si3O10(OH)8
  Chrysotile       -7.97     24.24   32.20  Mg3Si2O5(OH)4
  CO2(g)           -0.94     -2.41   -1.47  CO2	 Pressure   0.1 atm, phi 0.996
  Dolomite          0.00    -17.08  -17.08  CaMg(CO3)2
  Epsomite         -3.07     -4.81   -1.74  MgSO4:7H2O
  Fe(OH)3(a)       -5.91     -1.01    4.89  Fe(OH)3
  FeS(ppt)          0.00     -3.91   -3.92  FeS
  Fluorite         -0.41    -11.01  -10.60  CaF2
  Gibbsite         -0.85      7.26    8.11  Al(OH)3
  Goethite         -0.00     -1.00   -1.00  FeOOH
  Gypsum            0.00     -4.55   -4.55  CaSO4:2H2O
  H2(g)            -7.72    -10.82   -3.10  H2
  H2O(g)           -1.52     -0.01    1.50  H2O
  H2S(g)           -4.19    -12.13   -7.94  H2S
  Halite           -2.18     -0.61    1.57  NaCl
  Hausmannite     -46.78     14.25   61.03  Mn3O4
  Hematite          2.02     -1.99   -4.01  Fe2O3
  Hexahydrite      -3.23     -4.79   -1.57  MgSO4:6H2O
  Hydroxyapatite   -4.12     -7.54   -3.42  Ca5(PO4)3OH
  Illite           -3.30    -43.57  -40.27  K0.6Mg0.25Al2.3Si3.5O10(OH)2
  Jarosite-K      -21.40    -30.61   -9.21  KFe3(SO4)2(OH)6
  K-feldspar       -2.73    -23.30  -20.57  KAlSi3O8
  K-mica            1.21     13.92   12.70  KAl3Si3O10(OH)2
  Kaolinite        -0.00      7.43    7.43  Al2Si2O5(OH)4
  Kieserite        -3.56     -4.72   -1.16  MgSO4:H2O
  Mackinawite       0.73     -3.91   -4.65  FeS
  Manganite       -19.32      6.02   25.34  MnOOH
  Melanterite      -4.85     -7.06   -2.21  FeSO4:7H2O
  Mirabilite       -3.48     -4.18   -0.71  Na2SO4:10H2O
  N2(g)            -0.05     -3.23   -3.18  N2	 Pressure   0.9 atm, phi 1.000
  NH3(g)           -8.62     -6.82    1.80  NH3
  O2(g)           -67.87    -70.76   -2.89  O2	 Pressure   0.0 atm, phi 0.999
  Pyrite           10.10     -8.38  -18.48  FeS2
  Pyrochroite     -13.02      2.18   15.20  Mn(OH)2
  Pyrolusite      -31.54      9.84   41.38  MnO2:H2O
  Quartz            0.43     -3.55   -3.98  SiO2
  Rhodochrosite    -5.76    -16.89  -11.13  MnCO3
  Sepiolite        -5.55     10.21   15.76  Mg2Si3O7.5OH:3H2O
  Sepiolite(d)     -8.45     10.21   18.66  Mg2Si3O7.5OH:3H2O
  Siderite          0.00    -10.89  -10.89  FeCO3
  SiO2(a)          -0.84     -3.55   -2.71  SiO2
  Strontianite     -3.30    -12.57   -9.27  SrCO3
  Sulfur           -2.41      2.48    4.88  S
  Sylvite          -4.33     -3.43    0.90  KCl
  Talc             -4.25     17.15   21.40  Mg3Si4O10(OH)2
  Thenardite       -4.69     -4.04    0.65  Na2SO4
  Vivianite        -4.70    -40.70  -36.00  Fe3(PO4)2:8H2O
  Witherite        -6.89    -15.45   -8.56  BaCO3

**For a gas, SI = log10(fugacity). Fugacity = pressure * phi / 1 atm.
  For ideal gases, phi = 1.

Reaction step 2.

Using solution 1.	Seawater
Using exchange 1.	
Using surface 1.	
Using pure phase assemblage 1.	Complete phase assemblage
Using gas phase 1.	
Using temperature 1.	
Using reaction 1.	Reaction test

Reaction 1.	Reaction test

	  1.000e+00 moles of the following reaction have been added:

	                 Relative
	Reactant            moles

	HCl                  1.00000

	                 Relative
	Element             moles
	Cl                   1.00000
	H                    1.00000

-----------------------------------Gas phase-----------------------------------

Total pressure:  1.00      atmospheres          (Peng-Robinson calculation)
    Gas volume:   1.02e+00 liters
  Molar volume:   2.53e+01 liters/mole
   P * Vm / RT:  0.99885  (Compressibility Factor Z) 

                                                        Moles in gas
                                            ----------------------------------
Component         log P           P    phi     Initial       Final       Delta

CH4(g)            -5.46   3.459e-06  0.998   4.089e-08   1.394e-07   9.854e-08
CO2(g)            -0.62   2.408e-01  0.996   1.292e-05   9.707e-03   9.694e-03
N2(g)             -0.12   7.592e-01  1.000   3.190e-02   3.060e-02  -1.298e-03
O2(g)            -65.24   5.698e-66  0.999   8.179e-03   0.000e+00  -8.179e-03

-------------------------------Phase assemblage--------------------------------

                                                      Moles in assemblage
Phase               SI  log IAP  log K(T, P)   Initial       Final       Delta

Anhydrite        -0.08    -4.56     -4.48    1.000e+00           0  -1.000e+00
Aragonite        -0.13    -8.53     -8.41    2.500e+00           0  -2.500e+00
Calcite           0.00    -8.53     -8.53    1.000e+00   3.603e+00   2.603e+00
Chalcedony        0.00    -3.44     -3.44    2.100e+00   9.987e-02  -2.000e+00
Dolomite         -0.00   -17.28    -17.28    1.000e+00   6.689e-01  -3.311e-01
FeS(ppt)          0.00    -3.91     -3.92    1.000e+00   9.345e-01  -6.554e-02
Gibbsite         -0.84     6.73      7.57    2.000e+00           0  -2.000e+00
Goethite          0.00    -1.34     -1.34    1.000e+00   5.173e-01  -4.827e-01
Gypsum            0.00    -4.60     -4.60    1.000e+00   2.084e+00   1.084e+00
Kaolinite         0.00     6.60      6.60    5.000e+00   6.000e+00   1.000e+00
Siderite          0.00   -10.95    -10.95    1.000e+00   1.543e+00   5.435e-01
Sulfur           -2.27     2.39      4.66    0.000e+00           0   0.000e+00

------------------------------Surface composition------------------------------

Diffuse Double Layer Surface-Complexation Model

Surf          
	  4.538e-04  Surface charge, eq
	  1.239e-01  sigma, C/m²
	  3.627e-02  psi, V
	 -1.366e+00  -F*psi/RT
	  2.551e-01  exp(-F*psi/RT)
	  1.071e+03  specific area, m²/g
	  3.534e+02  m² for   3.300e-01 g


Surf          
	  1.000e-03  moles
	                                   Mole                     Log
	Species               Moles    Fraction    Molality    Molality

	SurfOH2+          5.114e-04       0.511   5.154e-04      -3.288
	SurfOH            4.310e-04       0.431   4.344e-04      -3.362
	SurfO-            5.758e-05       0.058   5.804e-05      -4.236
	SurfMoO4-         2.584e-10       0.000   2.605e-10      -9.584
	SurfOHMoO4-2      1.042e-10       0.000   1.050e-10      -9.979

-----------------------------Exchange composition------------------------------

X                3.000e+00 mol

	                               Equiv-    Equivalent      Log 
	Species             Moles      alents      Fraction     Gamma

	NaX               8.819e-01   8.819e-01   2.940e-01    -0.084
	CaX2              8.185e-01   1.637e+00   5.457e-01    -0.543
	MgX2              2.328e-01   4.656e-01   1.552e-01    -0.412
	KX                9.245e-03   9.245e-03   3.082e-03    -0.250
	FeX2              2.134e-03   4.267e-03   1.422e-03    -0.777
	NH4X              1.885e-03   1.885e-03   6.285e-04     0.000
	SrX2              7.245e-05   1.449e-04   4.830e-05    -0.603
	LiX               1.496e-05   1.496e-05   4.988e-06    -0.194
	BaX2              1.222e-07   2.444e-07   8.146e-08    -0.713
	AlOHX2            1.698e-09   3.397e-09   1.132e-09    -0.017
	MnX2              1.268e-09   2.537e-09   8.456e-10    -0.777
	AlX3              4.280e-10   1.284e-09   4.280e-10    -1.275

-----------------------------Solution composition------------------------------

	Elements           Molality       Moles

	Al                9.912e-08   9.835e-08
	B                 2.363e-03   2.344e-03
	Ba                2.897e-08   2.875e-08
	Br                8.799e-04   8.730e-04
	C                 8.509e-03   8.443e-03
	Ca                3.394e-01   3.368e-01
	Cl                1.578e+00   1.566e+00
	F                 7.643e-05   7.583e-05
	Fe                2.702e-03   2.681e-03
	K                 1.345e-03   1.334e-03
	Li                1.217e-05   1.207e-05
	Mg                1.546e-01   1.534e-01
	Mn                2.525e-09   2.505e-09
	Mo                6.126e-09   6.078e-09
	N                 1.299e-03   1.289e-03
	Na                6.083e-01   6.036e-01
	P                 6.600e-07   6.548e-07
	S                 1.092e-02   1.083e-02
	Si                2.054e-04   2.038e-04
	Sr                2.403e-05   2.384e-05

----------------------------Description of solution----------------------------

                                       pH  =   5.633      Charge balance
                                       pe  =  -1.977      Adjusted to redox equilibrium
      Specific Conductance (µS/cm,  35°C)  = 134707
                          Density (g/cm³)  =   1.05811
                               Volume (L)  =   1.02138
                        Viscosity (mPa s)  =   0.90182
                        Activity of water  =   0.954
                 Ionic strength (mol/kgw)  =   2.078e+00
                       Mass of water (kg)  =   9.922e-01
                 Total alkalinity (eq/kg)  =   3.879e-03
                       Total CO2 (mol/kg)  =   8.509e-03
                         Temperature (°C)  =  35.00
                  Electrical balance (eq)  =  -8.866e-04
 Percent error, 100*(Cat-|An|)/(Cat+|An|)  =  -0.03
                               Iterations  =  20
                                  Total H  = 1.101596e+02
                                  Total O  = 5.514436e+01

----------------------------Distribution of species----------------------------

                                               Log       Log       Log    mole V
   Species          Molality    Activity  Molality  Activity     Gamma   cm³/mol

   H+              3.230e-06   2.331e-06    -5.491    -5.633    -0.142      0.00
   OH-             1.634e-08   8.561e-09    -7.787    -8.067    -0.281     -0.12
   H2O             5.551e+01   9.541e-01     1.744    -0.020     0.000     18.12
Al            9.912e-08
   AlF+2           4.312e-08   6.251e-09    -7.365    -8.204    -0.839     (0)  
   AlF2+           4.057e-08   2.503e-08    -7.392    -7.601    -0.210     (0)  
   Al(OH)2+        7.062e-09   4.358e-09    -8.151    -8.361    -0.210     (0)  
   AlOH+2          4.118e-09   5.971e-10    -8.385    -9.224    -0.839    -26.60
   AlF3            1.499e-09   2.418e-09    -8.824    -8.617     0.208     (0)  
   Al+3            1.463e-09   7.764e-11    -8.835   -10.110    -1.275    -39.81
   Al(OH)4-        8.211e-10   4.744e-10    -9.086    -9.324    -0.238     (0)  
   Al(OH)3         3.236e-10   5.222e-10    -9.490    -9.282     0.208     (0)  
   AlSO4+          1.394e-10   8.057e-11    -9.856   -10.094    -0.238     (0)  
   AlF4-           1.269e-11   7.330e-12   -10.897   -11.135    -0.238     (0)  
   Al(SO4)2-       1.335e-12   7.713e-13   -11.875   -12.113    -0.238     (0)  
   AlHSO4+2        1.574e-17   1.842e-17   -16.803   -16.735     0.068     (0)  
B             2.363e-03
   H3BO3           2.362e-03   3.811e-03    -2.627    -2.419     0.208     39.90
   H2BO3-          1.079e-06   1.123e-06    -5.967    -5.950     0.017     (0)  
   BF(OH)3-        1.226e-08   1.275e-08    -7.911    -7.894     0.017     (0)  
   BF2(OH)2-       2.408e-11   2.504e-11   -10.618   -10.601     0.017     (0)  
   BF3OH-          4.104e-16   4.269e-16   -15.387   -15.370     0.017     (0)  
   BF4-            3.064e-20   3.187e-20   -19.514   -19.497     0.017     (0)  
Ba            2.897e-08
   Ba+2            2.885e-08   7.786e-09    -7.540    -8.109    -0.569     -9.04
   BaHCO3+         1.252e-10   1.302e-10    -9.902    -9.885     0.017     (0)  
   BaCO3           9.317e-14   1.503e-13   -13.031   -12.823     0.208    -10.62
   BaOH+           1.799e-16   1.080e-16   -15.745   -15.967    -0.221     (0)  
Br            8.799e-04
   Br-             8.799e-04   5.366e-04    -3.056    -3.270    -0.215     26.09
C(-4)         2.815e-09
   CH4             2.815e-09   4.543e-09    -8.550    -8.343     0.208     36.25
C(4)          8.509e-03
   CO2             4.635e-03   6.355e-03    -2.334    -2.197     0.137     35.26
   HCO3-           1.989e-03   1.274e-03    -2.701    -2.895    -0.193     33.79
   MgHCO3+         1.662e-03   9.179e-04    -2.779    -3.037    -0.258      6.17
   NaHCO3          1.713e-04   3.528e-04    -3.766    -3.452     0.314     18.34
   FeHCO3+         4.505e-05   4.686e-05    -4.346    -4.329     0.017     (0)  
   CaCO3           3.852e-06   6.216e-06    -5.414    -5.207     0.208    -14.57
   MgCO3           1.230e-06   1.984e-06    -5.910    -5.702     0.208    -17.09
   (CO2)2          7.591e-07   1.041e-06    -6.120    -5.983     0.137     69.68
   KHCO3           3.117e-07   5.029e-07    -6.506    -6.298     0.208     22.06
   SrHCO3+         2.610e-07   1.611e-07    -6.583    -6.793    -0.210     (0)  
   CO3-2           2.109e-07   3.057e-08    -6.676    -7.515    -0.839      3.18
   FeCO3           1.672e-07   2.698e-07    -6.777    -6.569     0.208     (0)  
   CaHCO3+         1.263e-07   8.077e-08    -6.899    -7.093    -0.194     10.37
   BaHCO3+         1.252e-10   1.302e-10    -9.902    -9.885     0.017     (0)  
   SrCO3           9.540e-11   1.539e-10   -10.020    -9.813     0.208    -14.09
   MnHCO3+         3.438e-11   2.065e-11   -10.464   -10.685    -0.221     (0)  
   MnCO3           2.737e-13   4.417e-13   -12.563   -12.355     0.208     (0)  
   BaCO3           9.317e-14   1.503e-13   -13.031   -12.823     0.208    -10.62
Ca            3.394e-01
   Ca+2            3.351e-01   9.596e-02    -0.475    -1.018    -0.543    -15.63
   CaSO4           4.337e-03   5.366e-03    -2.363    -2.270     0.092      8.13
   CaCO3           3.852e-06   6.216e-06    -5.414    -5.207     0.208    -14.57
   CaH2PO4+        2.487e-07   1.535e-07    -6.604    -6.814    -0.210     (0)  
   CaHCO3+         1.263e-07   8.077e-08    -6.899    -7.093    -0.194     10.37
   CaHSO4+         9.125e-08   9.492e-08    -7.040    -7.023     0.017     (0)  
   CaHPO4          5.701e-08   9.199e-08    -7.244    -7.036     0.208     (0)  
   CaOH+           6.268e-09   6.519e-09    -8.203    -8.186     0.017     (0)  
   CaMoO4          2.193e-09   3.538e-09    -8.659    -8.451     0.208     (0)  
   CaPO4-          1.816e-10   1.121e-10    -9.741    -9.951    -0.210     (0)  
Cl            1.578e+00
   Cl-             1.578e+00   9.098e-01     0.198    -0.041    -0.239     19.55
   FeCl+           4.441e-04   4.619e-04    -3.353    -3.335     0.017     (0)  
   HCl             8.960e-08   6.865e-07    -7.048    -6.163     0.884     20.97
   MnCl+           1.122e-09   6.740e-10    -8.950    -9.171    -0.221     -0.69
   MnCl2           1.659e-10   2.677e-10    -9.780    -9.572     0.208     75.17
   MnCl3-          1.117e-10   6.707e-11    -9.952   -10.173    -0.221     50.37
   FeCl+2          1.806e-16   2.349e-17   -15.743   -16.629    -0.886     (0)  
   FeCl2+          1.170e-16   7.025e-17   -15.932   -16.153    -0.221     (0)  
   FeCl3           3.961e-18   6.391e-18   -17.402   -17.194     0.208     (0)  
F             7.643e-05
   MgF+            6.039e-05   3.489e-05    -4.219    -4.457    -0.238    -10.19
   F-              1.450e-05   7.597e-06    -4.839    -5.119    -0.281      0.16
   NaF             1.354e-06   2.185e-06    -5.868    -5.661     0.208      7.59
   AlF+2           4.312e-08   6.251e-09    -7.365    -8.204    -0.839     (0)  
   AlF2+           4.057e-08   2.503e-08    -7.392    -7.601    -0.210     (0)  
   FeF+            2.687e-08   2.795e-08    -7.571    -7.554     0.017     (0)  
   HF              1.978e-08   3.191e-08    -7.704    -7.496     0.208     12.90
   BF(OH)3-        1.226e-08   1.275e-08    -7.911    -7.894     0.017     (0)  
   AlF3            1.499e-09   2.418e-09    -8.824    -8.617     0.208     (0)  
   BF2(OH)2-       2.408e-11   2.504e-11   -10.618   -10.601     0.017     (0)  
   AlF4-           1.269e-11   7.330e-12   -10.897   -11.135    -0.238     (0)  
   HF2-            9.549e-13   9.932e-13   -12.020   -12.003     0.017     23.86
   MnF+            1.592e-14   9.559e-15   -13.798   -14.020    -0.221     (0)  
   BF3OH-          4.104e-16   4.269e-16   -15.387   -15.370     0.017     (0)  
   FeF+2           6.754e-17   8.784e-18   -16.170   -17.056    -0.886     (0)  
   FeF2+           4.963e-18   2.981e-18   -17.304   -17.526    -0.221     (0)  
   BF4-            3.064e-20   3.187e-20   -19.514   -19.497     0.017     (0)  
   FeF3            2.299e-20   3.709e-20   -19.639   -19.431     0.208     (0)  
   SiF6-2          1.083e-26   1.409e-27   -25.965   -26.851    -0.886     48.83
Fe(2)         2.702e-03
   Fe+2            2.199e-03   3.678e-04    -2.658    -3.434    -0.777    -19.25
   FeCl+           4.441e-04   4.619e-04    -3.353    -3.335     0.017     (0)  
   FeHCO3+         4.505e-05   4.686e-05    -4.346    -4.329     0.017     (0)  
   FeSO4           1.400e-05   2.260e-05    -4.854    -4.646     0.208     30.88
   FeCO3           1.672e-07   2.698e-07    -6.777    -6.569     0.208     (0)  
   FeOH+           1.634e-07   9.812e-08    -6.787    -7.008    -0.221     (0)  
   Fe(HS)2         1.207e-07   1.947e-07    -6.918    -6.711     0.208     (0)  
   FeF+            2.687e-08   2.795e-08    -7.571    -7.554     0.017     (0)  
   FeH2PO4+        1.550e-08   9.567e-09    -7.810    -8.019    -0.210     (0)  
   FeHPO4          1.324e-09   2.137e-09    -8.878    -8.670     0.208     (0)  
   FeHSO4+         3.498e-10   3.638e-10    -9.456    -9.439     0.017     (0)  
   Fe(HS)3-        1.571e-11   1.634e-11   -10.804   -10.787     0.017     (0)  
   Fe(OH)2         4.916e-13   7.932e-13   -12.308   -12.101     0.208     (0)  
   Fe(OH)3-        2.209e-17   1.327e-17   -16.656   -16.877    -0.221     (0)  
Fe(3)         9.838e-13
   Fe(OH)2+        9.321e-13   5.752e-13   -12.031   -12.240    -0.210     (0)  
   Fe(OH)3         2.866e-14   4.625e-14   -13.543   -13.335     0.208     (0)  
   FeOH+2          2.260e-14   2.940e-15   -13.646   -14.532    -0.886     (0)  
   FeCl+2          1.806e-16   2.349e-17   -15.743   -16.629    -0.886     (0)  
   FeCl2+          1.170e-16   7.025e-17   -15.932   -16.153    -0.221     (0)  
   FeF+2           6.754e-17   8.784e-18   -16.170   -17.056    -0.886     (0)  
   Fe(OH)4-        4.128e-17   2.547e-17   -16.384   -16.594    -0.210     (0)  
   Fe+3            1.185e-17   6.292e-19   -16.926   -18.201    -1.275     (0)  
   FeF2+           4.963e-18   2.981e-18   -17.304   -17.526    -0.221     (0)  
   FeSO4+          4.120e-18   2.474e-18   -17.385   -17.607    -0.221     (0)  
   FeCl3           3.961e-18   6.391e-18   -17.402   -17.194     0.208     (0)  
   FeH2PO4+2       6.061e-20   8.788e-21   -19.217   -20.056    -0.839     (0)  
   FeF3            2.299e-20   3.709e-20   -19.639   -19.431     0.208     (0)  
   Fe(SO4)2-       1.564e-20   1.627e-20   -19.806   -19.789     0.017     (0)  
   FeHPO4+         5.642e-22   3.388e-22   -21.249   -21.470    -0.221     (0)  
   FeHSO4+2        1.336e-23   1.563e-23   -22.874   -22.806     0.068     (0)  
   Fe2(OH)2+4      8.305e-29   1.559e-28   -28.081   -27.807     0.274     (0)  
   Fe3(OH)4+5      2.867e-39   7.674e-39   -38.542   -38.115     0.428     (0)  
H(0)          3.804e-11
   H2              1.902e-11   3.143e-11   -10.721   -10.503     0.218     15.65
K             1.345e-03
   K+              1.342e-03   7.554e-04    -2.872    -3.122    -0.250     10.58
   KSO4-           2.282e-06   3.495e-06    -5.642    -5.457     0.185     44.14
   KHCO3           3.117e-07   5.029e-07    -6.506    -6.298     0.208     22.06
   KHPO4-          3.484e-12   2.150e-12   -11.458   -11.668    -0.210     41.62
Li            1.217e-05
   Li+             1.215e-05   7.770e-06    -4.915    -5.110    -0.194     -0.40
   LiSO4-          1.635e-08   9.818e-09    -7.787    -8.008    -0.221     (0)  
Mg            1.546e-01
   Mg+2            1.506e-01   5.833e-02    -0.822    -1.234    -0.412    -19.82
   MgSO4           2.193e-03   5.711e-03    -2.659    -2.243     0.416      0.35
   MgHCO3+         1.662e-03   9.179e-04    -2.779    -3.037    -0.258      6.17
   MgF+            6.039e-05   3.489e-05    -4.219    -4.457    -0.238    -10.19
   Mg(SO4)2-2      1.789e-05   4.561e-06    -4.747    -5.341    -0.594     56.97
   MgCO3           1.230e-06   1.984e-06    -5.910    -5.702     0.208    -17.09
   MgOH+           3.165e-07   2.077e-07    -6.500    -6.683    -0.183     (0)  
   MgH2PO4+        1.926e-07   1.188e-07    -6.715    -6.925    -0.210     (0)  
   MgHPO4          4.686e-08   7.561e-08    -7.329    -7.121     0.208     (0)  
   MgMoO4          3.844e-09   6.203e-09    -8.415    -8.207     0.208     (0)  
   MgPO4-          1.489e-10   9.190e-11    -9.827   -10.037    -0.210     (0)  
Mn(2)         2.525e-09
   MnCl+           1.122e-09   6.740e-10    -8.950    -9.171    -0.221     -0.69
   Mn+2            1.087e-09   1.819e-10    -8.964    -9.740    -0.777    -15.06
   MnCl2           1.659e-10   2.677e-10    -9.780    -9.572     0.208     75.17
   MnCl3-          1.117e-10   6.707e-11    -9.952   -10.173    -0.221     50.37
   MnHCO3+         3.438e-11   2.065e-11   -10.464   -10.685    -0.221     (0)  
   MnSO4           2.854e-12   1.786e-12   -11.545   -11.748    -0.204     17.25
   MnCO3           2.737e-13   4.417e-13   -12.563   -12.355     0.208     (0)  
   MnF+            1.592e-14   9.559e-15   -13.798   -14.020    -0.221     (0)  
   MnOH+           7.013e-15   4.211e-15   -14.154   -14.376    -0.221     (0)  
   Mn(OH)3-        3.293e-28   1.978e-28   -27.482   -27.704    -0.221     (0)  
   Mn(NO3)2        0.000e+00   0.000e+00  -164.665  -164.458     0.208     38.69
Mn(3)         4.586e-36
   Mn+3            4.586e-36   2.434e-37   -35.339   -36.614    -1.275     (0)  
Mo            6.126e-09
   MgMoO4          3.844e-09   6.203e-09    -8.415    -8.207     0.208     (0)  
   CaMoO4          2.193e-09   3.538e-09    -8.659    -8.451     0.208     (0)  
   MoO4-2          8.478e-11   9.924e-11   -10.072   -10.003     0.068     (0)  
   HMoO4-          3.864e-12   4.020e-12   -11.413   -11.396     0.017     (0)  
   H2MoO4          2.365e-15   3.816e-15   -14.626   -14.418     0.208     (0)  
N(-3)         7.443e-04
   NH4+            7.384e-04   3.361e-04    -3.132    -3.473    -0.342     18.88
   NH4SO4-         5.752e-06   2.717e-06    -5.240    -5.566    -0.326     44.42
   NH3             1.008e-07   1.626e-07    -6.997    -6.789     0.208     24.72
N(0)          5.547e-04
   N2              2.774e-04   4.475e-04    -3.557    -3.349     0.208     29.29
N(3)          0.000e+00
   NO2-            0.000e+00   0.000e+00   -57.107   -57.415    -0.308     26.83
N(5)          0.000e+00
   NO3-            0.000e+00   0.000e+00   -77.346   -77.654    -0.308     31.70
   Mn(NO3)2        0.000e+00   0.000e+00  -164.665  -164.458     0.208     38.69
Na            6.083e-01
   Na+             6.065e-01   4.998e-01    -0.217    -0.301    -0.084      0.48
   NaSO4-          1.623e-03   1.420e-03    -2.790    -2.848    -0.058     26.81
   NaHCO3          1.713e-04   3.528e-04    -3.766    -3.452     0.314     18.34
   NaF             1.354e-06   2.185e-06    -5.868    -5.661     0.208      7.59
   Na2SO4          5.910e-07   9.026e-07    -6.228    -6.045     0.184     43.65
   NaHPO4-         2.305e-09   1.422e-09    -8.637    -8.847    -0.210    201.15
O(0)          0.000e+00
   O2              0.000e+00   0.000e+00   -68.410   -68.202     0.208     31.10
P             6.600e-07
   CaH2PO4+        2.487e-07   1.535e-07    -6.604    -6.814    -0.210     (0)  
   MgH2PO4+        1.926e-07   1.188e-07    -6.715    -6.925    -0.210     (0)  
   H2PO4-          8.410e-08   5.189e-08    -7.075    -7.285    -0.210     37.12
   CaHPO4          5.701e-08   9.199e-08    -7.244    -7.036     0.208     (0)  
   MgHPO4          4.686e-08   7.561e-08    -7.329    -7.121     0.208     (0)  
   FeH2PO4+        1.550e-08   9.567e-09    -7.810    -8.019    -0.210     (0)  
   HPO4-2          1.122e-08   1.459e-09    -7.950    -8.836    -0.886     12.15
   NaHPO4-         2.305e-09   1.422e-09    -8.637    -8.847    -0.210    201.15
   FeHPO4          1.324e-09   2.137e-09    -8.878    -8.670     0.208     (0)  
   CaPO4-          1.816e-10   1.121e-10    -9.741    -9.951    -0.210     (0)  
   MgPO4-          1.489e-10   9.190e-11    -9.827   -10.037    -0.210     (0)  
   H3PO4           1.239e-11   1.998e-11   -10.907   -10.699     0.208     47.88
   KHPO4-          3.484e-12   2.150e-12   -11.458   -11.668    -0.210     41.62
   PO4-3           7.155e-14   3.425e-16   -13.145   -15.465    -2.320    -13.43
   FeH2PO4+2       6.061e-20   8.788e-21   -19.217   -20.056    -0.839     (0)  
   FeHPO4+         5.642e-22   3.388e-22   -21.249   -21.470    -0.221     (0)  
S(-2)         9.124e-06
   H2S             7.412e-06   1.196e-05    -5.130    -4.922     0.208     38.44
   HS-             1.471e-06   7.706e-07    -5.832    -6.113    -0.281     22.40
   Fe(HS)2         1.207e-07   1.947e-07    -6.918    -6.711     0.208     (0)  
   Fe(HS)3-        1.571e-11   1.634e-11   -10.804   -10.787     0.017     (0)  
   (H2S)2          5.894e-12   9.511e-12   -11.230   -11.022     0.208     29.63
   S-2             5.958e-13   7.748e-14   -12.225   -13.111    -0.886     (0)  
S(6)          1.091e-02
   CaSO4           4.337e-03   5.366e-03    -2.363    -2.270     0.092      8.13
   SO4-2           2.695e-03   2.895e-04    -2.569    -3.538    -0.969     22.09
   MgSO4           2.193e-03   5.711e-03    -2.659    -2.243     0.416      0.35
   NaSO4-          1.623e-03   1.420e-03    -2.790    -2.848    -0.058     26.81
   Mg(SO4)2-2      1.789e-05   4.561e-06    -4.747    -5.341    -0.594     56.97
   FeSO4           1.400e-05   2.260e-05    -4.854    -4.646     0.208     30.88
   NH4SO4-         5.752e-06   2.717e-06    -5.240    -5.566    -0.326     44.42
   KSO4-           2.282e-06   3.495e-06    -5.642    -5.457     0.185     44.14
   Na2SO4          5.910e-07   9.026e-07    -6.228    -6.045     0.184     43.65
   SrSO4           2.301e-07   3.713e-07    -6.638    -6.430     0.208     24.56
   CaHSO4+         9.125e-08   9.492e-08    -7.040    -7.023     0.017     (0)  
   HSO4-           7.910e-08   8.228e-08    -7.102    -7.085     0.017     42.04
   LiSO4-          1.635e-08   9.818e-09    -7.787    -8.008    -0.221     (0)  
   FeHSO4+         3.498e-10   3.638e-10    -9.456    -9.439     0.017     (0)  
   AlSO4+          1.394e-10   8.057e-11    -9.856   -10.094    -0.238     (0)  
   MnSO4           2.854e-12   1.786e-12   -11.545   -11.748    -0.204     17.25
   Al(SO4)2-       1.335e-12   7.713e-13   -11.875   -12.113    -0.238     (0)  
   AlHSO4+2        1.574e-17   1.842e-17   -16.803   -16.735     0.068     (0)  
   FeSO4+          4.120e-18   2.474e-18   -17.385   -17.607    -0.221     (0)  
   Fe(SO4)2-       1.564e-20   1.627e-20   -19.806   -19.789     0.017     (0)  
   FeHSO4+2        1.336e-23   1.563e-23   -22.874   -22.806     0.068     (0)  
Si            2.054e-04
   H4SiO4          2.053e-04   3.313e-04    -3.688    -3.480     0.208     51.34
   H3SiO4-         5.258e-08   2.905e-08    -7.279    -7.537    -0.258     29.58
[...]
   BaOH+           1.799e-16   1.080e-16   -15.745   -15.967    -0.221     (0)  
Br            8.799e-04
   Br-             8.799e-04   5.366e-04    -3.056    -3.270    -0.215     26.09
C(-4)         2.815e-09
   CH4             2.815e-09   4.543e-09    -8.550    -8.343     0.208     36.25
C(4)          8.509e-03
   CO2             4.635e-03   6.355e-03    -2.334    -2.197     0.137     35.26
   HCO3-           1.989e-03   1.274e-03    -2.701    -2.895    -0.193     33.79
   MgHCO3+         1.662e-03   9.179e-04    -2.779    -3.037    -0.258      6.17
   NaHCO3          1.713e-04   3.528e-04    -3.766    -3.452     0.314     18.34
   FeHCO3+         4.505e-05   4.686e-05    -4.346    -4.329     0.017     (0)  
   CaCO3           3.852e-06   6.216e-06    -5.414    -5.207     0.208    -14.57
   MgCO3           1.230e-06   1.984e-06    -5.910    -5.702     0.208    -17.09
   (CO2)2          7.591e-07   1.041e-06    -6.120    -5.983     0.137     69.68
   KHCO3           3.117e-07   5.029e-07    -6.506    -6.298     0.208     22.06
   SrHCO3+         2.610e-07   1.611e-07    -6.583    -6.793    -0.210     (0)  
   CO3-2           2.109e-07   3.057e-08    -6.676    -7.515    -0.839      3.18
   FeCO3           1.672e-07   2.698e-07    -6.777    -6.569     0.208     (0)  
   CaHCO3+         1.263e-07   8.077e-08    -6.899    -7.093    -0.194     10.37
   BaHCO3+         1.252e-10   1.302e-10    -9.902    -9.885     0.017     (0)  
   SrCO3           9.540e-11   1.539e-10   -10.020    -9.813     0.208    -14.09
   MnHCO3+         3.438e-11   2.065e-11   -10.464   -10.685    -0.221     (0)  
   MnCO3           2.737e-13   4.417e-13   -12.563   -12.355     0.208     (0)  
   BaCO3           9.317e-14   1.503e-13   -13.031   -12.823     0.208    -10.62
Ca            3.394e-01
   Ca+2            3.351e-01   9.596e-02    -0.475    -1.018    -0.543    -15.63
   CaSO4           4.337e-03   5.366e-03    -2.363    -2.270     0.092      8.13
   CaCO3           3.852e-06   6.216e-06    -5.414    -5.207     0.208    -14.57
   CaH2PO4+        2.487e-07   1.535e-07    -6.604    -6.814    -0.210     (0)  
   CaHCO3+         1.263e-07   8.077e-08    -6.899    -7.093    -0.194     10.37
   CaHSO4+         9.125e-08   9.492e-08    -7.040    -7.023     0.017     (0)  
   CaHPO4          5.701e-08   9.199e-08    -7.244    -7.036     0.208     (0)  
   CaOH+           6.268e-09   6.519e-09    -8.203    -8.186     0.017     (0)  
   CaMoO4          2.193e-09   3.538e-09    -8.659    -8.451     0.208     (0)  
   CaPO4-          1.816e-10   1.121e-10    -9.741    -9.951    -0.210     (0)  
Cl            1.578e+00
   Cl-             1.578e+00   9.098e-01     0.198    -0.041    -0.239     19.55
   FeCl+           4.441e-04   4.619e-04    -3.353    -3.335     0.017     (0)  
   HCl             8.960e-08   6.865e-07    -7.048    -6.163     0.884     20.97
   MnCl+           1.122e-09   6.740e-10    -8.950    -9.171    -0.221     -0.69
   MnCl2           1.659e-10   2.677e-10    -9.780    -9.572     0.208     75.17
   MnCl3-          1.117e-10   6.707e-11    -9.952   -10.173    -0.221     50.37
   FeCl+2          1.806e-16   2.349e-17   -15.743   -16.629    -0.886     (0)  
   FeCl2+          1.170e-16   7.025e-17   -15.932   -16.153    -0.221     (0)  
   FeCl3           3.961e-18   6.391e-18   -17.402   -17.194     0.208     (0)  
F             7.643e-05
   MgF+            6.039e-05   3.489e-05    -4.219    -4.457    -0.238    -10.19
   F-              1.450e-05   7.597e-06    -4.839    -5.119    -0.281      0.16
   NaF             1.354e-06   2.185e-06    -5.868    -5.661     0.208      7.59
   AlF+2           4.312e-08   6.251e-09    -7.365    -8.204    -0.839     (0)  
   AlF2+           4.057e-08   2.503e-08    -7.392    -7.601    -0.210     (0)  
   FeF+            2.687e-08   2.795e-08    -7.571    -7.554     0.017     (0)  
   HF              1.978e-08   3.191e-08    -7.704    -7.496     0.208     12.90
   BF(OH)3-        1.226e-08   1.275e-08    -7.911    -7.894     0.017     (0)  
   AlF3            1.499e-09   2.418e-09    -8.824    -8.617     0.208     (0)  
   BF2(OH)2-       2.408e-11   2.504e-11   -10.618   -10.601     0.017     (0)  
   AlF4-           1.269e-11   7.330e-12   -10.897   -11.135    -0.238     (0)  
   HF2-            9.549e-13   9.932e-13   -12.020   -12.003     0.017     23.86
   MnF+            1.592e-14   9.559e-15   -13.798   -14.020    -0.221     (0)  
   BF3OH-          4.104e-16   4.269e-16   -15.387   -15.370     0.017     (0)  
   FeF+2           6.754e-17   8.784e-18   -16.170   -17.056    -0.886     (0)  
   FeF2+           4.963e-18   2.981e-18   -17.304   -17.526    -0.221     (0)  
   BF4-            3.064e-20   3.187e-20   -19.514   -19.497     0.017     (0)  
   FeF3            2.299e-20   3.709e-20   -19.639   -19.431     0.208     (0)  
   SiF6-2          1.083e-26   1.409e-27   -25.965   -26.851    -0.886     48.83
Fe(2)         2.702e-03
   Fe+2            2.199e-03   3.678e-04    -2.658    -3.434    -0.777    -19.25
   FeCl+           4.441e-04   4.619e-04    -3.353    -3.335     0.017     (0)  
   FeHCO3+         4.505e-05   4.686e-05    -4.346    -4.329     0.017     (0)  
   FeSO4           1.400e-05   2.260e-05    -4.854    -4.646     0.208     30.88
   FeCO3           1.672e-07   2.698e-07    -6.777    -6.569     0.208     (0)  
   FeOH+           1.634e-07   9.812e-08    -6.787    -7.008    -0.221     (0)  
   Fe(HS)2         1.207e-07   1.947e-07    -6.918    -6.711     0.208     (0)  
   FeF+            2.687e-08   2.795e-08    -7.571    -7.554     0.017     (0)  
   FeH2PO4+        1.550e-08   9.567e-09    -7.810    -8.019    -0.210     (0)  
   FeHPO4          1.324e-09   2.137e-09    -8.878    -8.670     0.208     (0)  
   FeHSO4+         3.498e-10   3.638e-10    -9.456    -9.439     0.017     (0)  
   Fe(HS)3-        1.571e-11   1.634e-11   -10.804   -10.787     0.017     (0)  
   Fe(OH)2         4.916e-13   7.932e-13   -12.308   -12.101     0.208     (0)  
   Fe(OH)3-        2.209e-17   1.327e-17   -16.656   -16.877    -0.221     (0)  
Fe(3)         9.838e-13
   Fe(OH)2+        9.321e-13   5.752e-13   -12.031   -12.240    -0.210     (0)  
   Fe(OH)3         2.866e-14   4.625e-14   -13.543   -13.335     0.208     (0)  
   FeOH+2          2.260e-14   2.940e-15   -13.646   -14.532    -0.886     (0)  
   FeCl+2          1.806e-16   2.349e-17   -15.743   -16.629    -0.886     (0)  
   FeCl2+          1.170e-16   7.025e-17   -15.932   -16.153    -0.221     (0)  
   FeF+2           6.754e-17   8.784e-18   -16.170   -17.056    -0.886     (0)  
   Fe(OH)4-        4.128e-17   2.547e-17   -16.384   -16.594    -0.210     (0)  
   Fe+3            1.185e-17   6.292e-19   -16.926   -18.201    -1.275     (0)  
   FeF2+           4.963e-18   2.981e-18   -17.304   -17.526    -0.221     (0)  
   FeSO4+          4.120e-18   2.474e-18   -17.385   -17.607    -0.221     (0)  
   FeCl3           3.961e-18   6.391e-18   -17.402   -17.194     0.208     (0)  
   FeH2PO4+2       6.061e-20   8.788e-21   -19.217   -20.056    -0.839     (0)  
   FeF3            2.299e-20   3.709e-20   -19.639   -19.431     0.208     (0)  
   Fe(SO4)2-       1.564e-20   1.627e-20   -19.806   -19.789     0.017     (0)  
   FeHPO4+         5.642e-22   3.388e-22   -21.249   -21.470    -0.221     (0)  
   FeHSO4+2        1.336e-23   1.563e-23   -22.874   -22.806     0.068     (0)  
   Fe2(OH)2+4      8.305e-29   1.559e-28   -28.081   -27.807     0.274     (0)  
   Fe3(OH)4+5      2.867e-39   7.674e-39   -38.542   -38.115     0.428     (0)  
H(0)          3.804e-11
   H2              1.902e-11   3.143e-11   -10.721   -10.503     0.218     15.65
K             1.345e-03
   K+              1.342e-03   7.554e-04    -2.872    -3.122    -0.250     10.58
   KSO4-           2.282e-06   3.495e-06    -5.642    -5.457     0.185     44.14
   KHCO3           3.117e-07   5.029e-07    -6.506    -6.298     0.208     22.06
   KHPO4-          3.484e-12   2.150e-12   -11.458   -11.668    -0.210     41.62
Li            1.217e-05
   Li+             1.215e-05   7.770e-06    -4.915    -5.110    -0.194     -0.40
   LiSO4-          1.635e-08   9.818e-09    -7.787    -8.008    -0.221     (0)  
Mg            1.546e-01
   Mg+2            1.506e-01   5.833e-02    -0.822    -1.234    -0.412    -19.82
   MgSO4           2.193e-03   5.711e-03    -2.659    -2.243     0.416      0.35
   MgHCO3+         1.662e-03   9.179e-04    -2.779    -3.037    -0.258      6.17
   MgF+            6.039e-05   3.489e-05    -4.219    -4.457    -0.238    -10.19
   Mg(SO4)2-2      1.789e-05   4.561e-06    -4.747    -5.341    -0.594     56.97
   MgCO3           1.230e-06   1.984e-06    -5.910    -5.702     0.208    -17.09
   MgOH+           3.165e-07   2.077e-07    -6.500    -6.683    -0.183     (0)  
   MgH2PO4+        1.926e-07   1.188e-07    -6.715    -6.925    -0.210     (0)  
   MgHPO4          4.686e-08   7.561e-08    -7.329    -7.121     0.208     (0)  
   MgMoO4          3.844e-09   6.203e-09    -8.415    -8.207     0.208     (0)  
   MgPO4-          1.489e-10   9.190e-11    -9.827   -10.037    -0.210     (0)  
Mn(2)         2.525e-09
   MnCl+           1.122e-09   6.740e-10    -8.950    -9.171    -0.221     -0.69
   Mn+2            1.087e-09   1.819e-10    -8.964    -9.740    -0.777    -15.06
   MnCl2           1.659e-10   2.677e-10    -9.780    -9.572     0.208     75.17
   MnCl3-          1.117e-10   6.707e-11    -9.952   -10.173    -0.221     50.37
   MnHCO3+         3.438e-11   2.065e-11   -10.464   -10.685    -0.221     (0)  
   MnSO4           2.854e-12   1.786e-12   -11.545   -11.748    -0.204     17.25
   MnCO3           2.737e-13   4.417e-13   -12.563   -12.355     0.208     (0)  
   MnF+            1.592e-14   9.559e-15   -13.798   -14.020    -0.221     (0)  
   MnOH+           7.013e-15   4.211e-15   -14.154   -14.376    -0.221     (0)  
   Mn(OH)3-        3.293e-28   1.978e-28   -27.482   -27.704    -0.221     (0)  
   Mn(NO3)2        0.000e+00   0.000e+00  -164.665  -164.458     0.208     38.69
Mn(3)         4.586e-36
   Mn+3            4.586e-36   2.434e-37   -35.339   -36.614    -1.275     (0)  
Mo            6.126e-09
   MgMoO4          3.844e-09   6.203e-09    -8.415    -8.207     0.208     (0)  
   CaMoO4          2.193e-09   3.538e-09    -8.659    -8.451     0.208     (0)  
   MoO4-2          8.478e-11   9.924e-11   -10.072   -10.003     0.068     (0)  
   HMoO4-          3.864e-12   4.020e-12   -11.413   -11.396     0.017     (0)  
   H2MoO4          2.365e-15   3.816e-15   -14.626   -14.418     0.208     (0)  
N(-3)         7.443e-04
   NH4+            7.384e-04   3.361e-04    -3.132    -3.473    -0.342     18.88
   NH4SO4-         5.752e-06   2.717e-06    -5.240    -5.566    -0.326     44.42
   NH3             1.008e-07   1.626e-07    -6.997    -6.789     0.208     24.72
N(0)          5.547e-04
   N2              2.774e-04   4.475e-04    -3.557    -3.349     0.208     29.29
N(3)          0.000e+00
   NO2-            0.000e+00   0.000e+00   -57.107   -57.415    -0.308     26.83
N(5)          0.000e+00
   NO3-            0.000e+00   0.000e+00   -77.346   -77.654    -0.308     31.70
   Mn(NO3)2        0.000e+00   0.000e+00  -164.665  -164.458     0.208     38.69
Na            6.083e-01
   Na+             6.065e-01   4.998e-01    -0.217    -0.301    -0.084      0.48
   NaSO4-          1.623e-03   1.420e-03    -2.790    -2.848    -0.058     26.81
   NaHCO3          1.713e-04   3.528e-04    -3.766    -3.452     0.314     18.34
   NaF             1.354e-06   2.185e-06    -5.868    -5.661     0.208      7.59
   Na2SO4          5.910e-07   9.026e-07    -6.228    -6.045     0.184     43.65
   NaHPO4-         2.305e-09   1.422e-09    -8.637    -8.847    -0.210    201.15
O(0)          0.000e+00
   O2              0.000e+00   0.000e+00   -68.410   -68.202     0.208     31.10
P             6.600e-07
   CaH2PO4+        2.487e-07   1.535e-07    -6.604    -6.814    -0.210     (0)  
   MgH2PO4+        1.926e-07   1.188e-07    -6.715    -6.925    -0.210     (0)  
   H2PO4-          8.410e-08   5.189e-08    -7.075    -7.285    -0.210     37.12
   CaHPO4          5.701e-08   9.199e-08    -7.244    -7.036     0.208     (0)  
   MgHPO4          4.686e-08   7.561e-08    -7.329    -7.121     0.208     (0)  
   FeH2PO4+        1.550e-08   9.567e-09    -7.810    -8.019    -0.210     (0)  
   HPO4-2          1.122e-08   1.459e-09    -7.950    -8.836    -0.886     12.15
   NaHPO4-         2.305e-09   1.422e-09    -8.637    -8.847    -0.210    201.15
   FeHPO4          1.324e-09   2.137e-09    -8.878    -8.670     0.208     (0)  
   CaPO4-          1.816e-10   1.121e-10    -9.741    -9.951    -0.210     (0)  
   MgPO4-          1.489e-10   9.190e-11    -9.827   -10.037    -0.210     (0)  
   H3PO4           1.239e-11   1.998e-11   -10.907   -10.699     0.208     47.88
   KHPO4-          3.484e-12   2.150e-12   -11.458   -11.668    -0.210     41.62
   PO4-3           7.155e-14   3.425e-16   -13.145   -15.465    -2.320    -13.43
   FeH2PO4+2       6.061e-20   8.788e-21   -19.217   -20.056    -0.839     (0)  
   FeHPO4+         5.642e-22   3.388e-22   -21.249   -21.470    -0.221     (0)  
S(-2)         9.124e-06
   H2S             7.412e-06   1.196e-05    -5.130    -4.922     0.208     38.44
   HS-             1.471e-06   7.706e-07    -5.832    -6.113    -0.281     22.40
   Fe(HS)2         1.207e-07   1.947e-07    -6.918    -6.711     0.208     (0)  
   Fe(HS)3-        1.571e-11   1.634e-11   -10.804   -10.787     0.017     (0)  
   (H2S)2          5.894e-12   9.511e-12   -11.230   -11.022     0.208     29.63
   S-2             5.958e-13   7.748e-14   -12.225   -13.111    -0.886     (0)  
S(6)          1.091e-02
   CaSO4           4.337e-03   5.366e-03    -2.363    -2.270     0.092      8.13
   SO4-2           2.695e-03   2.895e-04    -2.569    -3.538    -0.969     22.09
   MgSO4           2.193e-03   5.711e-03    -2.659    -2.243     0.416      0.35
   NaSO4-          1.623e-03   1.420e-03    -2.790    -2.848    -0.058     26.81
   Mg(SO4)2-2      1.789e-05   4.561e-06    -4.747    -5.341    -0.594     56.97
   FeSO4           1.400e-05   2.260e-05    -4.854    -4.646     0.208     30.88
   NH4SO4-         5.752e-06   2.717e-06    -5.240    -5.566    -0.326     44.42
   KSO4-           2.282e-06   3.495e-06    -5.642    -5.457     0.185     44.14
   Na2SO4          5.910e-07   9.026e-07    -6.228    -6.045     0.184     43.65
   SrSO4           2.301e-07   3.713e-07    -6.638    -6.430     0.208     24.56
   CaHSO4+         9.125e-08   9.492e-08    -7.040    -7.023     0.017     (0)  
   HSO4-           7.910e-08   8.228e-08    -7.102    -7.085     0.017     42.04
   LiSO4-          1.635e-08   9.818e-09    -7.787    -8.008    -0.221     (0)  
   FeHSO4+         3.498e-10   3.638e-10    -9.456    -9.439     0.017     (0)  
   AlSO4+          1.394e-10   8.057e-11    -9.856   -10.094    -0.238     (0)  
   MnSO4           2.854e-12   1.786e-12   -11.545   -11.748    -0.204     17.25
   Al(SO4)2-       1.335e-12   7.713e-13   -11.875   -12.113    -0.238     (0)  
   AlHSO4+2        1.574e-17   1.842e-17   -16.803   -16.735     0.068     (0)  
   FeSO4+          4.120e-18   2.474e-18   -17.385   -17.607    -0.221     (0)  
   Fe(SO4)2-       1.564e-20   1.627e-20   -19.806   -19.789     0.017     (0)  
   FeHSO4+2        1.336e-23   1.563e-23   -22.874   -22.806     0.068     (0)  
Si            2.054e-04
   H4SiO4          2.053e-04   3.313e-04    -3.688    -3.480     0.208     51.34
   H3SiO4-         5.258e-08   2.905e-08    -7.279    -7.537    -0.258     29.58
   H2SiO4-2        1.080e-14   1.566e-15   -13.967   -14.805    -0.839     (0)  
   SiF6-2          1.083e-26   1.409e-27   -25.965   -26.851    -0.886     48.83
Sr            2.403e-05
   Sr+2            2.354e-05   5.870e-06    -4.628    -5.231    -0.603    -15.42
   SrHCO3+         2.610e-07   1.611e-07    -6.583    -6.793    -0.210     (0)  
   SrSO4           2.301e-07   3.713e-07    -6.638    -6.430     0.208     24.56
   SrCO3           9.540e-11   1.539e-10   -10.020    -9.813     0.208    -14.09
   SrOH+           2.052e-13   1.232e-13   -12.688   -12.909    -0.221     (0)  

------------------------------Saturation indices-------------------------------

  Phase               SI** log IAP   log K(308 K,   1 atm)

  Al(OH)3(a)       -3.44      6.73   10.17  Al(OH)3
  Albite           -2.52    -19.90  -17.39  NaAlSi3O8
  Alunite          -4.26     -6.86   -2.60  KAl3(SO4)2(OH)6
  Anhydrite        -0.08     -4.56   -4.48  CaSO4
  Anorthite        -7.02    -26.46  -19.44  CaAl2Si2O8
  Aragonite        -0.13     -8.53   -8.41  CaCO3
  Arcanite         -8.02     -9.78   -1.76  K2SO4
  Barite           -1.86    -11.65   -9.78  BaSO4
  Ca-Montmorillonite  -2.05    -45.68  -43.64  Ca0.165Al2.33Si3.67O10(OH)2
  Calcite           0.00     -8.53   -8.53  CaCO3
  Celestite        -2.06     -8.77   -6.71  SrSO4
  CH4(g)           -5.46     -8.34   -2.88  CH4	 Pressure   0.0 atm, phi 0.998
  Chalcedony        0.00     -3.44   -3.44  SiO2
  Chlorite(14A)   -11.61     53.17   64.78  Mg5Al2Si3O10(OH)8
  Chrysotile       -7.89     23.11   31.00  Mg3Si2O5(OH)4
  CO2(g)           -0.62     -2.20   -1.58  CO2	 Pressure   0.2 atm, phi 0.996
  Dolomite          0.00    -17.28  -17.28  CaMg(CO3)2
  Epsomite         -3.24     -4.92   -1.68  MgSO4:7H2O
  Fe(OH)3(a)       -6.26     -1.36    4.89  Fe(OH)3
  FeS(ppt)          0.00     -3.91   -3.92  FeS
  Fluorite         -0.76    -11.26  -10.49  CaF2
  Gibbsite         -0.84      6.73    7.57  Al(OH)3
  Goethite          0.00     -1.34   -1.34  FeOOH
  Gypsum            0.00     -4.60   -4.60  CaSO4:2H2O
  H2(g)            -7.39    -10.50   -3.12  H2
  H2O(g)           -1.28     -0.02    1.26  H2O
  H2S(g)           -3.82    -11.75   -7.92  H2S
  Halite           -1.92     -0.34    1.58  NaCl
  Hausmannite     -46.83     11.80   58.64  Mn3O4
  Hematite          2.07     -2.67   -4.74  Fe2O3
  Hexahydrite      -3.34     -4.89   -1.55  MgSO4:6H2O
  Hydroxyapatite   -4.81     -9.09   -4.28  Ca5(PO4)3OH
  Illite           -3.37    -42.34  -38.97  K0.6Mg0.25Al2.3Si3.5O10(OH)2
  Jarosite-K      -21.18    -31.13   -9.95  KFe3(SO4)2(OH)6
  K-feldspar       -2.88    -22.72  -19.84  KAlSi3O8
  K-mica            1.14     12.43   11.29  KAl3Si3O10(OH)2
  Kaolinite        -0.00      6.60    6.60  Al2Si2O5(OH)4
  Kieserite        -3.66     -4.79   -1.14  MgSO4:H2O
  Mackinawite       0.73     -3.91   -4.65  FeS
  Manganite       -20.20      5.14   25.34  MnOOH
  Melanterite      -5.02     -7.12   -2.10  FeSO4:7H2O
  Mirabilite       -4.38     -4.34    0.04  Na2SO4:10H2O
  N2(g)            -0.12     -3.35   -3.23  N2	 Pressure   0.8 atm, phi 1.000
  NH3(g)           -8.38     -6.79    1.60  NH3
  O2(g)           -65.24    -68.20   -2.96  O2	 Pressure   0.0 atm, phi 0.999
  Pyrite            9.86     -8.35  -18.21  FeS2
  Pyrochroite     -13.72      1.48   15.20  Mn(OH)2
  Pyrolusite      -31.06      8.77   39.83  MnO2:H2O
  Quartz            0.40     -3.44   -3.84  SiO2
  Rhodochrosite    -6.09    -17.25  -11.16  MnCO3
  Sepiolite        -5.87      9.63   15.51  Mg2Si3O7.5OH:3H2O
  Sepiolite(d)     -9.03      9.63   18.66  Mg2Si3O7.5OH:3H2O
  Siderite          0.00    -10.95  -10.95  FeCO3
  SiO2(a)          -0.81     -3.44   -2.63  SiO2
  Strontianite     -3.45    -12.75   -9.29  SrCO3
  Sulfur           -2.27      2.39    4.66  S
  Sylvite          -4.11     -3.16    0.95  KCl
  Talc             -4.04     16.26   20.30  Mg3Si4O10(OH)2
  Thenardite       -4.65     -4.14    0.51  Na2SO4
  Vivianite        -5.40    -41.40  -36.00  Fe3(PO4)2:8H2O
  Witherite        -7.06    -15.62   -8.56  BaCO3

**For a gas, SI = log10(fugacity). Fugacity = pressure * phi / 1 atm.
  For ideal gases, phi = 1.

------------------
End of simulation.
------------------

------------------------------------
Reading input data for simulation 4.
------------------------------------

