WARNING: Database file from DATABASE keyword is used; command line argument ignored.
   Input file: seaw_SC
  Output file: seaw_SC.out
Database file: ../database/Amm.dat

------------------
Reading data base.
------------------

	SOLUTION_MASTER_SPECIES
	SOLUTION_SPECIES
	PHASES
	GAS_BINARY_PARAMETERS
	EXCHANGE_MASTER_SPECIES
	EXCHANGE_SPECIES
	SURFACE_MASTER_SPECIES
	SURFACE_SPECIES
	MEAN_GAMMAS
	RATES
	END
------------------------------------
Reading input data for simulation 1.
------------------------------------

	database ../database/Amm.dat
	SELECTED_OUTPUT 101
	    file                 seaw_SC_101.sel
	USER_PUNCH 101
	    headings Mu SC
	    start
	10 PUNCH STR_F$(MU, 20, 12)
	20 PUNCH STR_F$(SC, 20, 10)
	    end
	SOLUTION 1  SEAWATER FROM NORDSTROM AND OTHERS (1979)
	        units   ppm
	        pH      8.22
	        pe      8.451
	        density 1.023
	        temp    25.0
	        Ca              412.3
	        Mg              1291.8
	        Na              10768.0
	        K               399.1
	        Fe              0.002
	        Mn              0.0002  pe
	        Si              4.28
	        Cl              19353.0
	        Alkalinity      141.682 as HCO3
	        S(6)            2712.0
	        N(5)            0.29    gfw   62.0
	        Amm            0.03    as    AmmH
	REACTION_TEMPERATURE
	 0 40 in 9
	USER_GRAPH
	-axis_titles "temp / oC" "Conductance / mS/cm" "viscosity / mPa.s"
	-headings Miller`88 phreeqc McCleskey x viscos_0  viscos
	10 A = 2.1923 : B = 0.12842 : kk= 0.0320 : ss= 0.00290 : h = 0.1243 : ff= 0.000978
	20 S  = 35.08 # salinity / (0/00): select the column of ppm's, TextFX -> Tools -> Add up numbers
	30 xx = 0.0000165 : T = tc
	40 K = (A + B * T^(1 + kk) / (1 + T^kk) * exp(ss * T)) * S / (1 + S^h) * exp(-ff * S) * exp(-xx * (S -35) * (T - 20))
	50 A1 = 2.070e-5 : A2 = -6.370e-10 : A3 = 3.989e-15
	60 B1 = 3.426e-2 : B2 = 4.464e-4 : B3 = 4.215e-1 : B4 =-3.107e-3
	70 p = pressure / 1.01325 * 10 : R = S / 35.009
	80 aa = (A1 * p + A2 * p^2 + A3 * p^3) / (1 + B1 * T + B2 *T^2 + B3 * R + B4 * R * T)
	90 K = K * (1 + aa) #: print tc, aa
	92 if pressure > 100 and tc > 31 then end
	100 plot_xy tc, K, line_width = 0, color = Red
	102 plot_xy tc, SC / 1e3, symbol = None , color = Red
	110 dif = sc/1e3/K -1
	120 if step_no = 1 then put(0, 1) : put(0, 2)
	130 put(dif^2 + get(1), 1) : put(1 + get(2), 2)
	140 if T = 40 then print 'relative s.d. ' + str_f$((get(1) / (get(2) - 1))^0.5 * 100, 0, 2) + ' %'
	150 sqrt_mu = mu^0.5
	160 gosub 2000
	180 if pressure < 100 then plot_xy tc, m_sc, color = Blue, symbol_size = 0
	190 dif2 = m_sc/ k - 1 : put(dif2^2 + get(3), 3)
	200 if tc = 40 then print 'relative s.d. MsCleskey: ' + str_f$((get(3) / (get(2) - 1))^0.5 * 100, 0, 2) + ' %'

	Reading data from McCleskey.phr ...
	1999 end
	2000 REM calculate molal conductance from McCleskey, returns m_sc, the specific conductance in mS/cm
	2010 l0_H = -0.01414 * T^2 + 5.355 * T + 224.2	 : A_H = -0.00918 * T^2 + 1.842 * T + 39.23	 : B_H = 0.3	 : l_H = l0_H - A_H * sqrt_mu / (1 + B_H * sqrt_mu)
	2020 l0_Li = 0.002628 * T^2 + 0.7079 * T + 19.20	 : A_Li = 0.00412 * T^2 + 0.4632 * T + 13.71	 : B_Li = 0.2	 : l_Li = l0_Li - A_Li * sqrt_mu / (1 + B_Li * sqrt_mu)
	2030 l0_Na = 0.003763 * T^2 + 0.8770 * T + 26.23	 : A_Na  =  0.00027 * T^2 + 1.141 * T + 32.07 	 : B_Na = 1.7	 : l_Na = l0_Na - A_Na * sqrt_mu / (1 + B_Na * sqrt_mu)
	2040 l0_K =  0.003046 * T^2 + 1.261 * T + 40.70 	 : A_K   =  0.00535 * T^2 + 0.9316 * T + 22.59	 : B_K = 1.5 	 : l_K = l0_K - A_K * sqrt_mu / (1 + B_K * sqrt_mu)
	2050 l0_Cs = 0.003453 * T^2 + 1.249 * T + 43.94	 : A_Cs = 0.00646 * T^2 + 0.7023 * T + 21.79	 : B_Cs = 1.3	 : l_Cs = l0_Cs - A_Cs * sqrt_mu / (1 + B_Cs * sqrt_mu)
	2060 l0_NH4 = 0.003341 * T^2 + 1.285 * T + 39.04	 : A_NH4 = 0.00132 * T^2 + 0.6070 * T + 11.19	 : B_NH4 = 0.3	 : l_NH4 = l0_NH4 - A_NH4 * sqrt_mu / (1 + B_NH4 * sqrt_mu)
	2070 l0_Ca2 = 0.009645 * T^2 + 1.984 * T + 62.28	 : A_Ca2 = 0.03174 * T^2 + 2.334 * T + 132.3	 : B_Ca2 = 2.8	 : l_Ca2 = l0_Ca2 - A_Ca2 * sqrt_mu / (1 + B_Ca2 * sqrt_mu)
	2080 l0_Mg2 = 0.01068 * T^2 + 1.695 * T + 57.16	 : A_Mg2 = 0.02453 * T^2 + 1.915 * T + 80.50	 : B_Mg2 = 2.1	 : l_Mg2 = l0_Mg2 - A_Mg2 * sqrt_mu / (1 + B_Mg2 * sqrt_mu)
	2090 l0_Ba2 = 0.01059 * T^2 + 2.090 * T + 68.10	 : A_Ba2 = 0.03127 * T^2 + 2.248 * T + 93.91	 : B_Ba2 = 1.9	 : l_Ba2 = l0_Ba2 - A_Ba2 * sqrt_mu / (1 + B_Ba2 * sqrt_mu)
	2100 l0_Sr2 = 0.006649 * T^2 + 2.069 * T + 61.63	 : A_Sr2 = 0.00702 * T^2 + 0.9009 * T + 33.41	 : B_Sr2 = 0.1	 : l_Sr2 = l0_Sr2 - A_Sr2 * sqrt_mu / (1 + B_Sr2 * sqrt_mu)
	2110 l0_SO42 = 0.01037 * T^2 + 2.838 * T + 82.37	 : A_SO42 = 0.03324 * T^2 + 5.889 * T + 193.5	 : B_SO42 = 2.6	 : l_SO42 = l0_SO42 - A_SO42 * sqrt_mu / (1 + B_SO42 * sqrt_mu)
	2120 l0_Cl = 0.003817 * T^2 + 1.337 * T + 40.99	 : A_Cl = 0.00613 * T^2 + 0.9469 * T + 22.01	 : B_Cl = 1.5	 : l_Cl = l0_Cl - A_Cl * sqrt_mu / (1 + B_Cl * sqrt_mu)
	2130 l0_F = 0.002764 * T^2 + 1.087 * T + 26.66	 : A_F = 0.00178 * T^2 + 0.6202 * T + 19.34	 : B_F = 0.5	 : l_F = l0_F - A_F * sqrt_mu / (1 + B_F * sqrt_mu)
	2140 l0_Br = 0.000709 * T^2 + 1.477 * T + 40.91	 : A_Br = 0.00251 * T^2 + 0.5398 * T + 12.01	 : B_Br = 0.1	 : l_Br = l0_Br - A_Br * sqrt_mu / (1 + B_Br * sqrt_mu)
	2150 l0_CO32 = -0.000326 * T^2 + 2.998 * T + 64.03	 : A_CO32 = -0.00181 * T^2 + 5.542 * T + 120.2	 : B_CO32 = 2.3	 : l_CO32 = l0_CO32 - A_CO3 * sqrt_mu / (1 + B_CO32 * sqrt_mu)
	2160 l0_HCO3 = 0.000614 * T^2 + 0.9048 * T + 21.14	 : A_HCO3 = -0.00503 * T^2 + 0.8957 * T + 10.97	 : B_HCO3 = 0.1	 : l_HCO3 = l0_HCO3 - A_HCO3 * sqrt_mu / (1 + B_HCO3 * sqrt_mu)
	2170 l0_NO3 = 0.001925 * T^2 + 1.214 * T + 39.90	 : A_NO3 = 0.00118 * T^2 + 0.5045 * T + 23.31	 : B_NO3 = 0.1	 : l_NO3 = l0_NO3 - A_NO3 * sqrt_mu / (1 + B_NO3 * sqrt_mu)
	2180 l0_OH = 0.003396 * T^2 + 2.925 * T + 121.3	 : A_OH = 0.00933 * T^2 + 0.1086 * T + 35.90	 : B_OH = 0.01	 : l_OH = l0_OH - A_OH * sqrt_mu / (1 + B_OH * sqrt_mu)
	2190 l0_Al3 = 0.02376 * T^2 + 3.227 * T + 90.24	 : A_Al3 = 0.06484 * T^2 + 5.149 * T + 76.79	 : B_Al3 = 3.0	 : l_Al3 = l0_Al3 - A_Al3 * sqrt_mu / (1 + B_Al3 * sqrt_mu)
	2200 l0_Cu2 = 0.00818 * T^2 + 1.939 * T + 53.26	 : A_Cu2 = 0.0292 * T^2 + 6.745 * T + 151.5	 : B_Cu2 = 8.0	 : l_Cu2 = l0_Cu2 - A_Cu2 * sqrt_mu / (1 + B_Cu2 * sqrt_mu)
	2210 l0_Fe2 = 0.009939 * T^2 + 1.878 * T + 54.80	 : A_Fe2 = 0.03997 * T^2 + 3.217 * T + 164.5	 : B_Fe2 = 4.0	 : l_Fe2 = l0_Fe2 - A_Fe2 * sqrt_mu / (1 + B_Fe2 * sqrt_mu)
	2220 l0_Fe3 = 0.02077 * T^2 + 4.390 * T + 82.42	 : A_Fe3 = -0.09676 * T^2 + 20.76 * T - 22.18	 : B_Fe3 = 4.0	 : l_Fe3 = l0_Fe3 - A_Fe3 * sqrt_mu / (1 + B_Fe3 * sqrt_mu)
	2230 l0_Mn2 = 0.01275 * T^2 + 2.109 * T + 46.19	 : A_Mn2 = 0.1071 * T^2 + 9.023 * T + 135.4	 : B_Mn2 = 7.6	 : l_Mn2 = l0_Mn2 - A_Mn2 * sqrt_mu / (1 + B_Mn2 * sqrt_mu)
	2240 l0_Zn2 = 0.01249 * T^2 + 1.912 * T + 48.20	 : A_Zn2 = 0.08284 * T^2 + 5.188 * T + 75.73	 : B_Zn2 = 7.0	 : l_Zn2 = l0_Zn2 - A_Zn2 * sqrt_mu / (1 + B_Zn2 * sqrt_mu)
	2250 l0_KSO4 = -0.002439 * T^2 + 4.253 * T + 129.7	 : A_KSO4 = -0.01576 * T^2 + 6.210 * T + 146.8	 : B_KSO4 = 1.3	 : l_KSO4 = l0_KSO4 - A_KSO4 * sqrt_mu / (1 + B_KSO4 * sqrt_mu)
	2260 l0_NaSO4 = 0.002309 * T^2 + 5.459 * T + 219.2	 : A_NaSO4 = 0.01454 * T^2 + 5.193 * T + 253.6	 : B_NaSO4 = 0.5	 : l_NaSO4 = l0_NaSO4 - A_NaSO4 * sqrt_mu / (1 + B_NaSO4 * sqrt_mu)
	2270 l0_HSO4 = 0.000927 * T^2 + 0.8337 * T + 29.56	 : A_HSO4 = 0.02887 * T^2 + 0.8730 * T + 36.25	 : B_HSO4 = 7.0	 : l_HSO4 = l0_HSO4 - A_HSO4 * sqrt_mu / (1 + B_HSO4 * sqrt_mu)
	2280 l0_NaCO3 = 0.00336 * T^2 + 3.845 * T + 89.51	 : A_NaCO3 =0.00061 * T^2 + 6.387 * T + 141.7	 : B_NaCO3 = 2.0	 : l_NaCO3 = l0_NaCO3 - A_NaCO3 * sqrt_mu / (1 + B_NaCO3 * sqrt_mu)
	2290 m_sc = mol("K+") * l_K + mol("Na+") * l_Na + mol("H+") * l_H + mol("Li+") * l_Li + mol("Cs+") * l_Cs + mol("AmmH+") * l_NH4 + mol("Ca+2") * l_Ca2 + mol("Mg+2") * l_Mg2 + mol("Ba+2") * l_Ba2 + mol("Sr+2") * l_Sr2 + mol("SO4-2") * l_SO42 + mol("Cl-") * l_Cl + mol("F-") * l_F + mol("Br-") * l_Br + mol("CO3-2") * l_CO32 + mol("HCO3-") * l_HCO3 + mol("NO3-") * l_NO3 + mol("OH-") * l_OH + mol("Al+3") * l_Al3 + mol("Cu+2") * l_Cu2 + mol("Fe+2") * l_Fe2 + mol("Fe+3") * l_Fe3 + mol("Mn+2") * l_Mn2 + mol("Zn+2") * l_Zn2 + mol("KSO4-") * l_KSO4 + mol("NaSO4-") * l_NaSO4 + mol("HSO4-") * l_HSO4 + mol("NaCO3-") * l_NaCO3
	2300 RETURN 
	END
-------------------------------------------
Beginning of initial solution calculations.
-------------------------------------------

Initial solution 1.	SEAWATER FROM NORDSTROM AND OTHERS (1979)

-----------------------------Solution composition------------------------------

	Elements           Molality       Moles

	Alkalinity        2.406e-03   2.406e-03
	Amm               1.724e-06   1.724e-06
	Ca                1.066e-02   1.066e-02
	Cl                5.657e-01   5.657e-01
	Fe                3.711e-08   3.711e-08
	K                 1.058e-02   1.058e-02
	Mg                5.507e-02   5.507e-02
	Mn                3.773e-09   3.773e-09
	N(5)              4.847e-06   4.847e-06
	Na                4.854e-01   4.854e-01
	S(6)              2.926e-02   2.926e-02
	Si                7.382e-05   7.382e-05

----------------------------Description of solution----------------------------

                                       pH  =   8.220    
                                       pe  =   8.451    
      Specific Conductance (µS/cm,  25°C)  = 52918
                          Density (g/cm³)  =   1.02326
                               Volume (L)  =   1.01279
                        Viscosity (mPa s)  =   0.95670
                        Activity of water  =   0.981
                 Ionic strength (mol/kgw)  =   6.737e-01
                       Mass of water (kg)  =   1.000e+00
                    Total carbon (mol/kg)  =   2.233e-03
                       Total CO2 (mol/kg)  =   2.233e-03
                         Temperature (°C)  =  25.00
                  Electrical balance (eq)  =   7.936e-04
 Percent error, 100*(Cat-|An|)/(Cat+|An|)  =   0.07
                               Iterations  =   7
                                  Total H  = 1.110148e+02
                                  Total O  = 5.563026e+01

----------------------------Distribution of species----------------------------

                                               Log       Log       Log    mole V
   Species          Molality    Activity  Molality  Activity     Gamma   cm³/mol

   OH-             2.705e-06   1.647e-06    -5.568    -5.783    -0.215     -2.63
   H+              7.983e-09   6.026e-09    -8.098    -8.220    -0.122      0.00
   H2O             5.551e+01   9.806e-01     1.744    -0.009     0.000     18.07
Amm           1.724e-06
   AmmH+           1.581e-06   8.888e-07    -5.801    -6.051    -0.250     18.48
   Amm             7.198e-08   8.406e-08    -7.143    -7.075     0.067     24.42
   AmmHSO4-        7.073e-08   4.519e-08    -7.150    -7.345    -0.195     39.49
C(4)          2.233e-03
   HCO3-           1.613e-03   1.102e-03    -2.792    -2.958    -0.165     28.01
   MgHCO3+         2.865e-04   1.802e-04    -3.543    -3.744    -0.201      5.82
   NaHCO3          1.472e-04   1.861e-04    -3.832    -3.730     0.102     17.66
   MgCO3           9.794e-05   1.144e-04    -4.009    -3.942     0.067    -17.09
   CO3-2           4.124e-05   8.580e-06    -4.385    -5.067    -0.682     -0.67
   CaCO3           3.056e-05   3.569e-05    -4.515    -4.447     0.067    -14.60
   CO2             1.375e-05   1.523e-05    -4.862    -4.817     0.044     34.79
   KHCO3           2.715e-06   3.171e-06    -5.566    -5.499     0.067     21.42
   CaHCO3+         3.459e-10   2.393e-10    -9.461    -9.621    -0.160      9.96
   MnCO3           2.902e-10   3.389e-10    -9.537    -9.470     0.067     (0)  
   MnHCO3+         7.366e-11   4.886e-11   -10.133   -10.311    -0.178     (0)  
   (CO2)2          3.404e-12   3.771e-12   -11.468   -11.424     0.044     68.75
   FeCO3           1.781e-16   2.080e-16   -15.749   -15.682     0.067     (0)  
   FeHCO3+         1.492e-16   1.114e-16   -15.826   -15.953    -0.127     (0)  
Ca            1.066e-02
   Ca+2            9.903e-03   2.476e-03    -2.004    -2.606    -0.602    -16.70
   CaSO4           7.271e-04   7.790e-04    -3.138    -3.108     0.030      7.22
   CaCO3           3.056e-05   3.569e-05    -4.515    -4.447     0.067    -14.60
   CaOH+           8.956e-08   6.688e-08    -7.048    -7.175    -0.127     (0)  
   CaHCO3+         3.459e-10   2.393e-10    -9.461    -9.621    -0.160      9.96
   CaHSO4+         5.268e-11   3.934e-11   -10.278   -10.405    -0.127     (0)  
Cl            5.657e-01
   Cl-             5.657e-01   3.569e-01    -0.247    -0.448    -0.200     18.79
   MnCl+           1.090e-09   7.230e-10    -8.963    -9.141    -0.178     -2.79
   HCl             3.828e-10   7.407e-10    -9.417    -9.130     0.287     20.36
   MnCl2           9.644e-11   1.126e-10   -10.016    -9.948     0.067     85.89
   MnCl3-          1.669e-11   1.107e-11   -10.778   -10.956    -0.178     45.79
   FeCl+           6.667e-16   4.979e-16   -15.176   -15.303    -0.127     (0)  
   FeCl+2          1.518e-18   2.938e-19   -17.819   -18.532    -0.713     (0)  
   FeCl2+          7.062e-19   4.684e-19   -18.151   -18.329    -0.178     (0)  
   FeCl3           1.431e-20   1.672e-20   -19.844   -19.777     0.067     (0)  
Fe(2)         5.828e-15
   Fe+2            4.409e-15   1.011e-15   -14.356   -14.995    -0.640    -20.71
   FeCl+           6.667e-16   4.979e-16   -15.176   -15.303    -0.127     (0)  
   FeSO4           3.471e-16   4.054e-16   -15.460   -15.392     0.067     30.28
   FeCO3           1.781e-16   2.080e-16   -15.749   -15.682     0.067     (0)  
   FeHCO3+         1.492e-16   1.114e-16   -15.826   -15.953    -0.127     (0)  
   FeOH+           7.841e-17   5.201e-17   -16.106   -16.284    -0.178     (0)  
   Fe(OH)2         6.169e-20   7.204e-20   -19.210   -19.142     0.067     (0)  
   Fe(OH)3-        6.567e-22   4.356e-22   -21.183   -21.361    -0.178     (0)  
   FeHSO4+         2.150e-23   1.605e-23   -22.668   -22.794    -0.127     (0)  
Fe(3)         3.711e-08
   Fe(OH)3         2.772e-08   3.237e-08    -7.557    -7.490     0.067     (0)  
   Fe(OH)4-        7.113e-09   4.804e-09    -8.148    -8.318    -0.170     (0)  
   Fe(OH)2+        2.286e-09   1.544e-09    -8.641    -8.811    -0.170     (0)  
   FeOH+2          1.480e-13   2.865e-14   -12.830   -13.543    -0.713     (0)  
   FeCl+2          1.518e-18   2.938e-19   -17.819   -18.532    -0.713     (0)  
   FeSO4+          1.017e-18   6.743e-19   -17.993   -18.171    -0.178     (0)  
   FeCl2+          7.062e-19   4.684e-19   -18.151   -18.329    -0.178     (0)  
   Fe+3            3.429e-19   2.727e-20   -18.465   -19.564    -1.100     (0)  
   Fe(SO4)2-       4.455e-20   3.327e-20   -19.351   -19.478    -0.127     (0)  
   FeCl3           1.431e-20   1.672e-20   -19.844   -19.777     0.067     (0)  
   Fe2(OH)2+4      2.364e-24   2.209e-26   -23.626   -25.656    -2.029     (0)  
   FeHSO4+2        3.499e-26   1.088e-26   -25.456   -25.963    -0.507     (0)  
   Fe3(OH)4+5      1.056e-29   7.126e-33   -28.976   -32.147    -3.171     (0)  
H(0)          5.474e-37
   H2              2.737e-37   3.221e-37   -36.563   -36.492     0.071     14.99
K             1.058e-02
   K+              1.033e-02   6.440e-03    -1.986    -2.191    -0.205      9.66
   KSO4-           2.437e-04   2.210e-04    -3.613    -3.656    -0.042     35.14
   KHCO3           2.715e-06   3.171e-06    -5.566    -5.499     0.067     21.42
Mg            5.507e-02
   Mg+2            4.840e-02   1.397e-02    -1.315    -1.855    -0.540    -20.41
   MgSO4           6.049e-03   8.250e-03    -2.218    -2.084     0.135     -0.40
   MgHCO3+         2.865e-04   1.802e-04    -3.543    -3.744    -0.201      5.82
   Mg(SO4)2-2      2.166e-04   6.128e-05    -3.664    -4.213    -0.548     48.71
   MgCO3           9.794e-05   1.144e-04    -4.009    -3.942     0.067    -17.09
   MgOH+           1.172e-05   8.255e-06    -4.931    -5.083    -0.152     (0)  
Mn(2)         3.773e-09
   Mn+2            2.169e-09   4.973e-10    -8.664    -9.303    -0.640    -16.36
   MnCl+           1.090e-09   7.230e-10    -8.963    -9.141    -0.178     -2.79
   MnCO3           2.902e-10   3.389e-10    -9.537    -9.470     0.067     (0)  
   MnCl2           9.644e-11   1.126e-10   -10.016    -9.948     0.067     85.89
   MnHCO3+         7.366e-11   4.886e-11   -10.133   -10.311    -0.178     (0)  
   MnSO4           3.341e-11   2.870e-11   -10.476   -10.542    -0.066     17.15
   MnCl3-          1.669e-11   1.107e-11   -10.778   -10.956    -0.178     45.79
   MnOH+           3.136e-12   2.080e-12   -11.504   -11.682    -0.178     (0)  
   Mn(OH)3-        5.121e-20   3.397e-20   -19.291   -19.469    -0.178     (0)  
   Mn(NO3)2        1.372e-20   1.603e-20   -19.863   -19.795     0.067     41.04
Mn(3)         5.460e-26
   Mn+3            5.460e-26   4.342e-27   -25.263   -26.362    -1.100     (0)  
N(5)          4.847e-06
   NO3-            4.847e-06   2.845e-06    -5.314    -5.546    -0.231     30.29
   Mn(NO3)2        1.372e-20   1.603e-20   -19.863   -19.795     0.067     41.04
Na            4.854e-01
   Na+             4.759e-01   3.415e-01    -0.323    -0.467    -0.144     -0.50
   NaSO4-          9.407e-03   6.766e-03    -2.027    -2.170    -0.143     21.71
   NaHCO3          1.472e-04   1.861e-04    -3.832    -3.730     0.102     17.66
   Na2SO4          9.820e-07   1.127e-06    -6.008    -5.948     0.060     47.96
O(0)          6.888e-20
   O2              3.444e-20   4.022e-20   -19.463   -19.396     0.067     30.40
S(6)          2.926e-02
   SO4-2           1.240e-02   2.255e-03    -1.907    -2.647    -0.740     17.12
   NaSO4-          9.407e-03   6.766e-03    -2.027    -2.170    -0.143     21.71
   MgSO4           6.049e-03   8.250e-03    -2.218    -2.084     0.135     -0.40
   CaSO4           7.271e-04   7.790e-04    -3.138    -3.108     0.030      7.22
   KSO4-           2.437e-04   2.210e-04    -3.613    -3.656    -0.042     35.14
   Mg(SO4)2-2      2.166e-04   6.128e-05    -3.664    -4.213    -0.548     48.71
   Na2SO4          9.820e-07   1.127e-06    -6.008    -5.948     0.060     47.96
   AmmHSO4-        7.073e-08   4.519e-08    -7.150    -7.345    -0.195     39.49
   HSO4-           1.769e-09   1.321e-09    -8.752    -8.879    -0.127     40.96
   CaHSO4+         5.268e-11   3.934e-11   -10.278   -10.405    -0.127     (0)  
   MnSO4           3.341e-11   2.870e-11   -10.476   -10.542    -0.066     17.15
   FeSO4           3.471e-16   4.054e-16   -15.460   -15.392     0.067     30.28
   FeSO4+          1.017e-18   6.743e-19   -17.993   -18.171    -0.178     (0)  
   Fe(SO4)2-       4.455e-20   3.327e-20   -19.351   -19.478    -0.127     (0)  
   FeHSO4+         2.150e-23   1.605e-23   -22.668   -22.794    -0.127     (0)  
   FeHSO4+2        3.499e-26   1.088e-26   -25.456   -25.963    -0.507     (0)  
Si            7.382e-05
   H4SiO4          7.061e-05   8.246e-05    -4.151    -4.084     0.067     52.08
   H3SiO4-         3.209e-06   2.018e-06    -5.494    -5.695    -0.201     28.72
   H2SiO4-2        1.095e-10   2.278e-11    -9.961   -10.642    -0.682     (0)  

------------------------------Saturation indices-------------------------------

  Phase               SI** log IAP   log K(298 K,   1 atm)

  Amm(g)           -8.87     -7.08    1.80  Amm
  Anhydrite        -0.94     -5.25   -4.31  CaSO4
  Aragonite         0.66     -7.67   -8.34  CaCO3
  Arcanite         -5.15     -7.03   -1.88  K2SO4
  Calcite           0.78     -7.67   -8.45  CaCO3
  Chalcedony       -0.52     -4.07   -3.55  SiO2
  Chrysotile        3.38     35.58   32.20  Mg3Si2O5(OH)4
  CO2(g)           -3.35     -4.82   -1.47  CO2
  Dolomite          2.49    -14.59  -17.08  CaMg(CO3)2
  Epsomite         -2.82     -4.56   -1.74  MgSO4:7H2O
  Fe(OH)3(a)        0.18      5.07    4.89  Fe(OH)3
  Goethite          6.08      5.08   -1.00  FeOOH
  Gypsum           -0.72     -5.27   -4.55  CaSO4:2H2O
  H2(g)           -33.39    -36.49   -3.10  H2
  H2O(g)           -1.51     -0.01    1.50  H2O
  Halite           -2.48     -0.91    1.57  NaCl
  Hausmannite      -6.31     54.72   61.03  Mn3O4
  Hematite         14.17     10.17   -4.01  Fe2O3
  Hexahydrite      -2.99     -4.55   -1.57  MgSO4:6H2O
  Jarosite-K       -7.70    -16.91   -9.21  KFe3(SO4)2(OH)6
  Kieserite        -3.35     -4.51   -1.16  MgSO4:H2O
  Manganite        -1.55     23.79   25.34  MnOOH
  Melanterite     -15.49    -17.70   -2.21  FeSO4:7H2O
  Mirabilite       -2.96     -3.67   -0.71  Na2SO4:10H2O
  O2(g)           -16.50    -19.40   -2.89  O2
  Pyrochroite      -8.08      7.12   15.20  Mn(OH)2
  Pyrolusite       -0.93     40.45   41.38  MnO2:H2O
  Quartz           -0.09     -4.07   -3.98  SiO2
  Rhodochrosite    -3.24    -14.37  -11.13  MnCO3
  Sepiolite         1.16     16.92   15.76  Mg2Si3O7.5OH:3H2O
  Sepiolite(d)     -1.74     16.92   18.66  Mg2Si3O7.5OH:3H2O
  Siderite         -9.17    -20.06  -10.89  FeCO3
  SiO2(a)          -1.35     -4.07   -2.71  SiO2
  Sylvite          -3.54     -2.64    0.90  KCl
  Talc              6.06     27.45   21.40  Mg3Si4O10(OH)2
  Thenardite       -4.23     -3.58    0.65  Na2SO4

**For a gas, SI = log10(fugacity). Fugacity = pressure * phi / 1 atm.
  For ideal gases, phi = 1.

-----------------------------------------
Beginning of batch-reaction calculations.
-----------------------------------------

Reaction step 1.

Using solution 1.	SEAWATER FROM NORDSTROM AND OTHERS (1979)
Using temperature 1.	

-----------------------------Solution composition------------------------------

	Elements           Molality       Moles

	Amm               1.724e-06   1.724e-06
	C                 2.233e-03   2.233e-03
	Ca                1.066e-02   1.066e-02
	Cl                5.657e-01   5.657e-01
	Fe                3.711e-08   3.711e-08
	K                 1.058e-02   1.058e-02
	Mg                5.507e-02   5.507e-02
	Mn                3.773e-09   3.773e-09
	N                 4.847e-06   4.847e-06
	Na                4.854e-01   4.854e-01
	S                 2.926e-02   2.926e-02
	Si                7.382e-05   7.382e-05

----------------------------Description of solution----------------------------

                                       pH  =   8.617      Charge balance
                                       pe  =  12.496      Adjusted to redox equilibrium
      Specific Conductance (µS/cm,   0°C)  = 28640
                          Density (g/cm³)  =   1.02804
                               Volume (L)  =   1.00808
                        Viscosity (mPa s)  =   1.88589
                        Activity of water  =   0.981
                 Ionic strength (mol/kgw)  =   6.827e-01
                       Mass of water (kg)  =   1.000e+00
                 Total alkalinity (eq/kg)  =   2.406e-03
                       Total CO2 (mol/kg)  =   2.233e-03
                         Temperature (°C)  =   0.00
                  Electrical balance (eq)  =   7.936e-04
 Percent error, 100*(Cat-|An|)/(Cat+|An|)  =   0.07
                               Iterations  =  22
                                  Total H  = 1.110148e+02
                                  Total O  = 5.563026e+01

----------------------------Distribution of species----------------------------

                                               Log       Log       Log    mole V
   Species          Molality    Activity  Molality  Activity     Gamma   cm³/mol

   OH-             7.565e-07   4.673e-07    -6.121    -6.330    -0.209     -4.83
   H+              3.178e-09   2.418e-09    -8.498    -8.617    -0.119      0.00
   H2O             5.551e+01   9.806e-01     1.744    -0.009     0.000     18.02
Amm           1.724e-06
   AmmH+           1.645e-06   9.408e-07    -5.784    -6.026    -0.243     17.36
   AmmHSO4-        5.072e-08   3.266e-08    -7.295    -7.486    -0.191     38.56
   Amm             2.740e-08   3.206e-08    -7.562    -7.494     0.068     22.40
C(-4)         0.000e+00
   CH4             0.000e+00   0.000e+00  -145.974  -145.906     0.068     32.63
C(4)          2.233e-03
   HCO3-           1.626e-03   1.124e-03    -2.789    -2.949    -0.160     24.56
   MgHCO3+         3.013e-04   1.920e-04    -3.521    -3.717    -0.196      4.52
   NaHCO3          1.168e-04   1.481e-04    -3.933    -3.829     0.103     14.64
   MgCO3           9.217e-05   1.079e-04    -4.035    -3.967     0.068    -17.05
   CO3-2           5.029e-05   1.094e-05    -4.298    -4.961    -0.663     -5.20
   CaCO3           3.426e-05   4.009e-05    -4.465    -4.397     0.068    -14.71
   CO2             9.471e-06   1.051e-05    -5.024    -4.979     0.045     33.49
   KHCO3           1.792e-06   2.097e-06    -5.747    -5.678     0.068     18.60
   MnCO3           3.711e-10   4.343e-10    -9.430    -9.362     0.068     (0)  
   MnHCO3+         7.465e-11   5.009e-11   -10.127   -10.300    -0.173     (0)  
   CaHCO3+         7.699e-13   5.383e-13   -12.114   -12.269    -0.155      8.36
   (CO2)2          3.324e-13   3.687e-13   -12.478   -12.433     0.045     66.14
   FeCO3           2.759e-19   3.228e-19   -18.559   -18.491     0.068     (0)  
   FeHCO3+         1.830e-19   1.383e-19   -18.737   -18.859    -0.122     (0)  
Ca            1.066e-02
   Ca+2            1.021e-02   2.684e-03    -1.991    -2.571    -0.580    -17.88
   CaSO4           4.171e-04   4.473e-04    -3.380    -3.349     0.030      3.19
   CaCO3           3.426e-05   4.009e-05    -4.465    -4.397     0.068    -14.71
   CaOH+           2.390e-07   1.806e-07    -6.622    -6.743    -0.122     (0)  
   CaHSO4+         1.744e-11   1.318e-11   -10.758   -10.880    -0.122     (0)  
   CaHCO3+         7.699e-13   5.383e-13   -12.114   -12.269    -0.155      8.36
Cl            5.657e-01
   Cl-             5.657e-01   3.620e-01    -0.247    -0.441    -0.194     17.11
   MnCl+           1.098e-09   7.372e-10    -8.959    -9.132    -0.173    -13.57
   HCl             1.804e-10   3.521e-10    -9.744    -9.453     0.291     17.71
   MnCl2           9.955e-11   1.165e-10   -10.002    -9.934     0.068    133.44
   MnCl3-          1.731e-11   1.161e-11   -10.762   -10.935    -0.173     45.81
   FeCl2+          2.176e-18   1.460e-18   -17.662   -17.836    -0.173     (0)  
   FeCl+2          1.875e-18   3.802e-19   -17.727   -18.420    -0.693     (0)  
   FeCl+           8.134e-19   6.148e-19   -18.090   -18.211    -0.122     (0)  
   FeCl3           4.517e-20   5.286e-20   -19.345   -19.277     0.068     (0)  
Fe(2)         6.772e-18
   Fe+2            5.149e-18   1.230e-18   -17.288   -17.910    -0.622    -23.14
   FeCl+           8.134e-19   6.148e-19   -18.090   -18.211    -0.122     (0)  
   FeSO4           3.198e-19   3.743e-19   -18.495   -18.427     0.068     27.66
   FeCO3           2.759e-19   3.228e-19   -18.559   -18.491     0.068     (0)  
   FeHCO3+         1.830e-19   1.383e-19   -18.737   -18.859    -0.122     (0)  
   FeOH+           3.061e-20   2.054e-20   -19.514   -19.687    -0.173     (0)  
   Fe(OH)2         5.644e-24   6.605e-24   -23.248   -23.180     0.068     (0)  
   Fe(OH)3-        1.134e-25   7.612e-26   -24.945   -25.118    -0.173     (0)  
   FeHSO4+         7.997e-27   6.045e-27   -26.097   -26.219    -0.122     (0)  
   Fe(HS)2         0.000e+00   0.000e+00  -293.731  -293.663     0.068     (0)  
   Fe(HS)3-        0.000e+00   0.000e+00  -433.856  -433.977    -0.122     (0)  
Fe(3)         3.711e-08
   Fe(OH)3         2.813e-08   3.292e-08    -7.551    -7.483     0.068     (0)  
   Fe(OH)4-        5.954e-09   4.066e-09    -8.225    -8.391    -0.166     (0)  
   Fe(OH)2+        3.031e-09   2.070e-09    -8.518    -8.684    -0.166     (0)  
   FeOH+2          2.139e-13   4.339e-14   -12.670   -13.363    -0.693     (0)  
   FeCl2+          2.176e-18   1.460e-18   -17.662   -17.836    -0.173     (0)  
   FeSO4+          2.078e-18   1.395e-18   -17.682   -17.855    -0.173     (0)  
   FeCl+2          1.875e-18   3.802e-19   -17.727   -18.420    -0.693     (0)  
   Fe+3            9.685e-19   8.260e-20   -18.014   -19.083    -1.069     (0)  
   Fe(SO4)2-       1.022e-19   7.728e-20   -18.990   -19.112    -0.122     (0)  
   FeCl3           4.517e-20   5.286e-20   -19.345   -19.277     0.068     (0)  
   Fe2(OH)2+4      1.377e-23   1.565e-25   -22.861   -24.806    -1.945     (0)  
   FeHSO4+2        3.122e-26   1.019e-26   -25.506   -25.992    -0.486     (0)  
   Fe3(OH)4+5      9.170e-28   8.392e-31   -27.038   -30.076    -3.039     (0)  
H(0)          0.000e+00
   H2              0.000e+00   0.000e+00   -45.330   -45.258     0.072     12.27
K             1.058e-02
   K+              1.028e-02   6.504e-03    -1.988    -2.187    -0.199      8.49
   KSO4-           2.931e-04   2.698e-04    -3.533    -3.569    -0.036     35.75
   KHCO3           1.792e-06   2.097e-06    -5.747    -5.678     0.068     18.60
Mg            5.507e-02
   Mg+2            5.010e-02   1.517e-02    -1.300    -1.819    -0.519    -19.67
   MgSO4           4.261e-03   5.836e-03    -2.370    -2.234     0.137     -3.69
   Mg(SO4)2-2      3.078e-04   9.050e-05    -3.512    -4.043    -0.532     36.03
   MgHCO3+         3.013e-04   1.920e-04    -3.521    -3.717    -0.196      4.52
   MgCO3           9.217e-05   1.079e-04    -4.035    -3.967     0.068    -17.05
   MgOH+           2.671e-06   1.901e-06    -5.573    -5.721    -0.148     (0)  
Mn(2)         3.773e-09
   Mn+2            2.092e-09   4.999e-10    -8.679    -9.301    -0.622    -17.54
   MnCl+           1.098e-09   7.372e-10    -8.959    -9.132    -0.173    -13.57
   MnCO3           3.711e-10   4.343e-10    -9.430    -9.362     0.068     (0)  
   MnCl2           9.955e-11   1.165e-10   -10.002    -9.934     0.068    133.44
   MnHCO3+         7.465e-11   5.009e-11   -10.127   -10.300    -0.173     (0)  
   MnSO4           1.897e-11   1.626e-11   -10.722   -10.789    -0.067     16.68
   MnCl3-          1.731e-11   1.161e-11   -10.762   -10.935    -0.173     45.81
   MnOH+           8.396e-13   5.635e-13   -12.076   -12.249    -0.173     (0)  
   Mn(OH)3-        7.875e-19   5.285e-19   -18.104   -18.277    -0.173     (0)  
   Mn(NO3)2        1.509e-20   1.766e-20   -19.821   -19.753     0.068     51.03
Mn(3)         1.056e-23
   Mn+3            1.056e-23   9.002e-25   -22.977   -24.046    -1.069     (0)  
N(0)          7.290e-12
   N2              3.645e-12   4.266e-12   -11.438   -11.370     0.068     29.29
N(3)          9.417e-17
   NO2-            9.417e-17   5.613e-17   -16.026   -16.251    -0.225     23.24
N(5)          4.847e-06
   NO3-            4.847e-06   2.889e-06    -5.314    -5.539    -0.225     26.57
   Mn(NO3)2        1.509e-20   1.766e-20   -19.821   -19.753     0.068     51.03
Na            4.854e-01
   Na+             4.764e-01   3.470e-01    -0.322    -0.460    -0.138     -2.24
   NaSO4-          8.877e-03   6.490e-03    -2.052    -2.188    -0.136     19.21
   NaHCO3          1.168e-04   1.481e-04    -3.933    -3.829     0.103     14.64
   Na2SO4          5.934e-08   6.819e-08    -7.227    -7.166     0.060     66.96
O(0)          1.819e-11
   O2              9.093e-12   1.064e-11   -11.041   -10.973     0.068     27.49
S(-2)         0.000e+00
   HS-             0.000e+00   0.000e+00  -142.142  -142.351    -0.209     19.01
   H2S             0.000e+00   0.000e+00  -143.685  -143.616     0.068     26.92
   S-2             0.000e+00   0.000e+00  -146.772  -147.465    -0.693     (0)  
   (H2S)2          0.000e+00   0.000e+00  -288.908  -288.840     0.068     30.91
   Fe(HS)2         0.000e+00   0.000e+00  -293.731  -293.663     0.068     (0)  
   Fe(HS)3-        0.000e+00   0.000e+00  -433.856  -433.977    -0.122     (0)  
S(6)          2.926e-02
   SO4-2           1.479e-02   2.817e-03    -1.830    -2.550    -0.720     11.09
   NaSO4-          8.877e-03   6.490e-03    -2.052    -2.188    -0.136     19.21
   MgSO4           4.261e-03   5.836e-03    -2.370    -2.234     0.137     -3.69
   CaSO4           4.171e-04   4.473e-04    -3.380    -3.349     0.030      3.19
   Mg(SO4)2-2      3.078e-04   9.050e-05    -3.512    -4.043    -0.532     36.03
   KSO4-           2.931e-04   2.698e-04    -3.533    -3.569    -0.036     35.75
   Na2SO4          5.934e-08   6.819e-08    -7.227    -7.166     0.060     66.96
   AmmHSO4-        5.072e-08   3.266e-08    -7.295    -7.486    -0.191     38.56
   HSO4-           5.406e-10   4.086e-10    -9.267    -9.389    -0.122     37.95
   MnSO4           1.897e-11   1.626e-11   -10.722   -10.789    -0.067     16.68
   CaHSO4+         1.744e-11   1.318e-11   -10.758   -10.880    -0.122     (0)  
   FeSO4+          2.078e-18   1.395e-18   -17.682   -17.855    -0.173     (0)  
   FeSO4           3.198e-19   3.743e-19   -18.495   -18.427     0.068     27.66
   Fe(SO4)2-       1.022e-19   7.728e-20   -18.990   -19.112    -0.122     (0)  
   FeHSO4+2        3.122e-26   1.019e-26   -25.506   -25.992    -0.486     (0)  
   FeHSO4+         7.997e-27   6.045e-27   -26.097   -26.219    -0.122     (0)  
Si            7.382e-05
   H4SiO4          7.099e-05   8.307e-05    -4.149    -4.081     0.068     55.30
   H3SiO4-         2.833e-06   1.805e-06    -5.548    -5.743    -0.196     27.21
   H2SiO4-2        3.520e-11   7.655e-12   -10.454   -11.116    -0.663     (0)  

------------------------------Saturation indices-------------------------------

  Phase               SI** log IAP   log K(273 K,   1 atm)

  Amm(g)           -9.87     -7.49    2.37  Amm
  Anhydrite        -1.18     -5.12   -3.94  CaSO4
  Aragonite         0.69     -7.53   -8.22  CaCO3
  Arcanite         -4.62     -6.92   -2.31  K2SO4
  Calcite           0.77     -7.53   -8.30  CaCO3
  CH4(g)         -143.43   -145.91   -2.47  CH4
  Chalcedony       -0.20     -4.06   -3.87  SiO2
  Chrysotile        2.50     38.07   35.57  Mg3Si2O5(OH)4
  CO2(g)           -3.87     -4.98   -1.11  CO2
  Dolomite          2.50    -14.31  -16.82  CaMg(CO3)2
  Epsomite         -2.54     -4.43   -1.89  MgSO4:7H2O
  Fe(OH)3(a)        1.85      6.74    4.89  Fe(OH)3
  FeS(ppt)       -147.73   -151.64   -3.92  FeS
  Goethite          6.78      6.75   -0.03  FeOOH
  Gypsum           -0.62     -5.14   -4.52  CaSO4:2H2O
  H2(g)           -42.23    -45.26   -3.03  H2
  H2O(g)           -2.22     -0.01    2.21  H2O
  H2S(g)         -142.95   -150.97   -8.01  H2S
  Halite           -2.45     -0.90    1.55  NaCl
  Hausmannite      -1.79     65.99   67.78  Mn3O4
  Hematite         15.45     13.51   -1.94  Fe2O3
  Hexahydrite      -2.82     -4.42   -1.60  MgSO4:6H2O
  Jarosite-K       -5.78    -12.89   -7.11  KFe3(SO4)2(OH)6
  Kieserite        -2.87     -4.38   -1.50  MgSO4:H2O
  Mackinawite    -147.00   -151.64   -4.65  FeS
  Manganite         3.69     29.03   25.34  MnOOH
  Melanterite     -17.95    -20.52   -2.57  FeSO4:7H2O
  Mirabilite       -1.14     -3.55   -2.41  Na2SO4:10H2O
  N2(g)            -8.39    -11.37   -2.98  N2
  O2(g)            -8.31    -10.97   -2.66  O2
  Pyrite         -241.15   -260.39  -19.24  FeS2
  Pyrochroite      -7.29      7.91   15.20  Mn(OH)2
  Pyrolusite        4.38     50.13   45.75  MnO2:H2O
  Quartz            0.32     -4.06   -4.38  SiO2
  Rhodochrosite    -3.23    -14.26  -11.03  MnCO3
  Sepiolite         2.11     18.59   16.48  Mg2Si3O7.5OH:3H2O
  Sepiolite(d)     -0.07     18.59   18.66  Mg2Si3O7.5OH:3H2O
  Siderite        -12.15    -22.87  -10.72  FeCO3
  SiO2(a)          -1.13     -4.06   -2.94  SiO2
  Sulfur         -106.91   -101.39    5.52  S
  Sylvite          -3.39     -2.63    0.76  KCl
  Talc              5.45     29.95   24.51  Mg3Si4O10(OH)2
  Thenardite       -4.43     -3.47    0.96  Na2SO4

**For a gas, SI = log10(fugacity). Fugacity = pressure * phi / 1 atm.
  For ideal gases, phi = 1.

Reaction step 2.

Using solution 1.	SEAWATER FROM NORDSTROM AND OTHERS (1979)
Using temperature 1.	

-----------------------------Solution composition------------------------------

	Elements           Molality       Moles

	Amm               1.724e-06   1.724e-06
	C                 2.233e-03   2.233e-03
	Ca                1.066e-02   1.066e-02
	Cl                5.657e-01   5.657e-01
	Fe                3.711e-08   3.711e-08
	K                 1.058e-02   1.058e-02
	Mg                5.507e-02   5.507e-02
	Mn                3.773e-09   3.773e-09
	N                 4.847e-06   4.847e-06
	Na                4.854e-01   4.854e-01
	S                 2.926e-02   2.926e-02
	Si                7.382e-05   7.382e-05

----------------------------Description of solution----------------------------

                                       pH  =   8.529      Charge balance
                                       pe  =  12.133      Adjusted to redox equilibrium
      Specific Conductance (µS/cm,   5°C)  = 33117
                          Density (g/cm³)  =   1.02759
                               Volume (L)  =   1.00853
                        Viscosity (mPa s)  =   1.61246
                        Activity of water  =   0.981
                 Ionic strength (mol/kgw)  =   6.809e-01
                       Mass of water (kg)  =   1.000e+00
                 Total alkalinity (eq/kg)  =   2.406e-03
                       Total CO2 (mol/kg)  =   2.233e-03
                         Temperature (°C)  =   5.00
                  Electrical balance (eq)  =   7.936e-04
 Percent error, 100*(Cat-|An|)/(Cat+|An|)  =   0.07
                               Iterations  =  21
                                  Total H  = 1.110148e+02
                                  Total O  = 5.563026e+01

----------------------------Distribution of species----------------------------

                                               Log       Log       Log    mole V
   Species          Molality    Activity  Molality  Activity     Gamma   cm³/mol

   OH-             1.002e-06   6.172e-07    -5.999    -6.210    -0.210     -4.15
   H+              3.898e-09   2.961e-09    -8.409    -8.529    -0.119      0.00
   H2O             5.551e+01   9.806e-01     1.744    -0.009     0.000     18.02
Amm           1.724e-06
   AmmH+           1.635e-06   9.321e-07    -5.786    -6.031    -0.244     17.69
   AmmHSO4-        5.499e-08   3.536e-08    -7.260    -7.451    -0.192     38.85
   Amm             3.360e-08   3.930e-08    -7.474    -7.406     0.068     23.02
C(-4)         0.000e+00
   CH4             0.000e+00   0.000e+00  -143.077  -143.008     0.068     33.36
C(4)          2.233e-03
   HCO3-           1.627e-03   1.122e-03    -2.789    -2.950    -0.161     25.53
   MgHCO3+         2.955e-04   1.879e-04    -3.529    -3.726    -0.197      4.90
   NaHCO3          1.223e-04   1.550e-04    -3.913    -3.810     0.103     15.48
   MgCO3           9.486e-05   1.110e-04    -4.023    -3.955     0.068    -17.06
   CO3-2           4.900e-05   1.058e-05    -4.310    -4.976    -0.666     -3.79
   CaCO3           3.216e-05   3.761e-05    -4.493    -4.425     0.068    -14.68
   CO2             1.003e-05   1.113e-05    -4.999    -4.954     0.045     33.79
   KHCO3           1.966e-06   2.299e-06    -5.707    -5.638     0.068     19.39
   MnCO3           3.585e-10   4.194e-10    -9.445    -9.377     0.068     (0)  
   MnHCO3+         7.457e-11   4.994e-11   -10.127   -10.302    -0.174     (0)  
   CaHCO3+         3.036e-12   2.119e-12   -11.518   -11.674    -0.156      8.81
   (CO2)2          5.406e-13   5.995e-13   -12.267   -12.222     0.045     66.74
   FeCO3           3.609e-19   4.221e-19   -18.443   -18.375     0.068     (0)  
   FeHCO3+         2.476e-19   1.868e-19   -18.606   -18.729    -0.122     (0)  
Ca            1.066e-02
   Ca+2            1.016e-02   2.647e-03    -1.993    -2.577    -0.584    -17.51
   CaSO4           4.715e-04   5.055e-04    -3.327    -3.296     0.030      4.31
   CaCO3           3.216e-05   3.761e-05    -4.493    -4.425     0.068    -14.68
   CaOH+           1.929e-07   1.455e-07    -6.715    -6.837    -0.122     (0)  
   CaHSO4+         2.208e-11   1.665e-11   -10.656   -10.779    -0.122     (0)  
   CaHCO3+         3.036e-12   2.119e-12   -11.518   -11.674    -0.156      8.81
Cl            5.657e-01
   Cl-             5.657e-01   3.611e-01    -0.247    -0.442    -0.195     17.64
   MnCl+           1.097e-09   7.344e-10    -8.960    -9.134    -0.174    -10.40
   HCl             2.140e-10   4.170e-10    -9.670    -9.380     0.290     18.45
   MnCl2           9.897e-11   1.158e-10   -10.005    -9.936     0.068    120.14
   MnCl3-          1.719e-11   1.151e-11   -10.765   -10.939    -0.174     45.84
   FeCl+2          1.830e-18   3.682e-19   -17.738   -18.434    -0.696     (0)  
   FeCl2+          1.750e-18   1.172e-18   -17.757   -17.931    -0.174     (0)  
   FeCl+           1.100e-18   8.294e-19   -17.959   -18.081    -0.122     (0)  
   FeCl3           3.617e-20   4.231e-20   -19.442   -19.374     0.068     (0)  
Fe(2)         9.237e-18
   Fe+2            7.014e-18   1.664e-18   -17.154   -17.779    -0.625    -22.47
   FeCl+           1.100e-18   8.294e-19   -17.959   -18.081    -0.122     (0)  
   FeSO4           4.623e-19   5.408e-19   -18.335   -18.267     0.068     28.39
   FeCO3           3.609e-19   4.221e-19   -18.443   -18.375     0.068     (0)  
   FeHCO3+         2.476e-19   1.868e-19   -18.606   -18.729    -0.122     (0)  
   FeOH+           5.243e-20   3.511e-20   -19.280   -19.455    -0.174     (0)  
   Fe(OH)2         1.311e-23   1.534e-23   -22.882   -22.814     0.068     (0)  
   Fe(OH)3-        2.283e-25   1.529e-25   -24.642   -24.816    -0.174     (0)  
   FeHSO4+         1.388e-26   1.047e-26   -25.858   -25.980    -0.122     (0)  
   Fe(HS)2         0.000e+00   0.000e+00  -287.961  -287.893     0.068     (0)  
   Fe(HS)3-        0.000e+00   0.000e+00  -425.265  -425.388    -0.122     (0)  
Fe(3)         3.711e-08
   Fe(OH)3         2.809e-08   3.285e-08    -7.551    -7.483     0.068     (0)  
   Fe(OH)4-        6.150e-09   4.192e-09    -8.211    -8.378    -0.166     (0)  
   Fe(OH)2+        2.876e-09   1.961e-09    -8.541    -8.708    -0.166     (0)  
   FeOH+2          2.004e-13   4.032e-14   -12.698   -13.395    -0.696     (0)  
   FeSO4+          1.835e-18   1.229e-18   -17.736   -17.910    -0.174     (0)  
   FeCl+2          1.830e-18   3.682e-19   -17.738   -18.434    -0.696     (0)  
   FeCl2+          1.750e-18   1.172e-18   -17.757   -17.931    -0.174     (0)  
   Fe+3            7.905e-19   6.661e-20   -18.102   -19.176    -1.074     (0)  
   Fe(SO4)2-       8.868e-20   6.689e-20   -19.052   -19.175    -0.122     (0)  
   FeCl3           3.617e-20   4.231e-20   -19.442   -19.374     0.068     (0)  
   Fe2(OH)2+4      9.671e-24   1.061e-25   -23.015   -24.974    -1.960     (0)  
   FeHSO4+2        3.253e-26   1.053e-26   -25.488   -25.978    -0.490     (0)  
   Fe3(OH)4+5      3.625e-28   3.142e-31   -27.441   -30.503    -3.062     (0)  
H(0)          0.000e+00
   H2              0.000e+00   0.000e+00   -44.451   -44.380     0.071     13.02
K             1.058e-02
   K+              1.030e-02   6.495e-03    -1.987    -2.187    -0.200      8.82
   KSO4-           2.803e-04   2.573e-04    -3.552    -3.590    -0.037     35.65
   KHCO3           1.966e-06   2.299e-06    -5.707    -5.638     0.068     19.39
Mg            5.507e-02
   Mg+2            4.978e-02   1.495e-02    -1.303    -1.825    -0.522    -19.84
   MgSO4           4.602e-03   6.297e-03    -2.337    -2.201     0.136     -2.78
   MgHCO3+         2.955e-04   1.879e-04    -3.529    -3.726    -0.197      4.90
   Mg(SO4)2-2      2.870e-04   8.382e-05    -3.542    -4.077    -0.535     38.99
   MgCO3           9.486e-05   1.110e-04    -4.023    -3.955     0.068    -17.06
   MgOH+           3.651e-06   2.594e-06    -5.438    -5.586    -0.149     (0)  
Mn(2)         3.773e-09
   Mn+2            2.104e-09   4.992e-10    -8.677    -9.302    -0.625    -17.15
   MnCl+           1.097e-09   7.344e-10    -8.960    -9.134    -0.174    -10.40
   MnCO3           3.585e-10   4.194e-10    -9.445    -9.377     0.068     (0)  
   MnCl2           9.897e-11   1.158e-10   -10.005    -9.936     0.068    120.14
   MnHCO3+         7.457e-11   4.994e-11   -10.127   -10.302    -0.174     (0)  
   MnSO4           2.156e-11   1.849e-11   -10.666   -10.733    -0.067     16.82
   MnCl3-          1.719e-11   1.151e-11   -10.765   -10.939    -0.174     45.84
   MnOH+           1.105e-12   7.403e-13   -11.956   -12.131    -0.174     (0)  
   Mn(OH)3-        4.291e-19   2.874e-19   -18.367   -18.542    -0.174     (0)  
   Mn(NO3)2        1.480e-20   1.732e-20   -19.830   -19.762     0.068     48.27
Mn(3)         1.085e-23
   Mn+3            1.085e-23   9.144e-25   -22.965   -24.039    -1.074     (0)  
N(0)          1.162e-11
   N2              5.810e-12   6.797e-12   -11.236   -11.168     0.068     29.29
N(3)          1.770e-16
   NO2-            1.770e-16   1.052e-16   -15.752   -15.978    -0.226     23.96
N(5)          4.847e-06
   NO3-            4.847e-06   2.882e-06    -5.314    -5.540    -0.226     27.63
   Mn(NO3)2        1.480e-20   1.732e-20   -19.830   -19.762     0.068     48.27
Na            4.854e-01
   Na+             4.763e-01   3.460e-01    -0.322    -0.461    -0.139     -1.76
   NaSO4-          9.015e-03   6.573e-03    -2.045    -2.182    -0.137     19.96
   NaHCO3          1.223e-04   1.550e-04    -3.913    -3.810     0.103     15.48
   Na2SO4          1.097e-07   1.260e-07    -6.960    -6.900     0.060     61.65
O(0)          2.903e-11
   O2              1.451e-11   1.698e-11   -10.838   -10.770     0.068     28.29
S(-2)         0.000e+00
   HS-             0.000e+00   0.000e+00  -139.322  -139.532    -0.210     19.71
   H2S             0.000e+00   0.000e+00  -140.873  -140.805     0.068     29.51
   S-2             0.000e+00   0.000e+00  -143.863  -144.559    -0.696     (0)  
   (H2S)2          0.000e+00   0.000e+00  -283.211  -283.143     0.068     30.79
   Fe(HS)2         0.000e+00   0.000e+00  -287.961  -287.893     0.068     (0)  
   Fe(HS)3-        0.000e+00   0.000e+00  -425.265  -425.388    -0.122     (0)  
S(6)          2.926e-02
   SO4-2           1.431e-02   2.705e-03    -1.844    -2.568    -0.724     12.93
   NaSO4-          9.015e-03   6.573e-03    -2.045    -2.182    -0.137     19.96
   MgSO4           4.602e-03   6.297e-03    -2.337    -2.201     0.136     -2.78
   CaSO4           4.715e-04   5.055e-04    -3.327    -3.296     0.030      4.31
   Mg(SO4)2-2      2.870e-04   8.382e-05    -3.542    -4.077    -0.535     38.99
   KSO4-           2.803e-04   2.573e-04    -3.552    -3.590    -0.037     35.65
   Na2SO4          1.097e-07   1.260e-07    -6.960    -6.900     0.060     61.65
   AmmHSO4-        5.499e-08   3.536e-08    -7.260    -7.451    -0.192     38.85
   HSO4-           6.939e-10   5.233e-10    -9.159    -9.281    -0.122     38.82
   CaHSO4+         2.208e-11   1.665e-11   -10.656   -10.779    -0.122     (0)  
   MnSO4           2.156e-11   1.849e-11   -10.666   -10.733    -0.067     16.82
   FeSO4+          1.835e-18   1.229e-18   -17.736   -17.910    -0.174     (0)  
   FeSO4           4.623e-19   5.408e-19   -18.335   -18.267     0.068     28.39
   Fe(SO4)2-       8.868e-20   6.689e-20   -19.052   -19.175    -0.122     (0)  
   FeHSO4+2        3.253e-26   1.053e-26   -25.488   -25.978    -0.490     (0)  
   FeHSO4+         1.388e-26   1.047e-26   -25.858   -25.980    -0.122     (0)  
Si            7.382e-05
   H4SiO4          7.089e-05   8.293e-05    -4.149    -4.081     0.068     54.40
   H3SiO4-         2.929e-06   1.862e-06    -5.533    -5.730    -0.197     27.67
   H2SiO4-2        4.564e-11   9.850e-12   -10.341   -11.007    -0.666     (0)  

------------------------------Saturation indices-------------------------------

  Phase               SI** log IAP   log K(278 K,   1 atm)

  Amm(g)           -9.65     -7.41    2.25  Amm
  Anhydrite        -1.14     -5.15   -4.01  CaSO4
  Aragonite         0.68     -7.55   -8.24  CaCO3
  Arcanite         -4.74     -6.94   -2.20  K2SO4
  Calcite           0.77     -7.55   -8.32  CaCO3
  CH4(g)         -140.45   -143.01   -2.56  CH4
  Chalcedony       -0.26     -4.06   -3.80  SiO2
  Chrysotile        2.67     37.52   34.85  Mg3Si2O5(OH)4
  CO2(g)           -3.76     -4.95   -1.19  CO2
  Dolomite          2.49    -14.35  -16.84  CaMg(CO3)2
  Epsomite         -2.59     -4.45   -1.86  MgSO4:7H2O
  Fe(OH)3(a)        1.49      6.38    4.89  Fe(OH)3
  FeS(ppt)       -144.87   -148.78   -3.92  FeS
  Goethite          6.63      6.39   -0.24  FeOOH
  Gypsum           -0.65     -5.16   -4.51  CaSO4:2H2O
  H2(g)           -41.33    -44.38   -3.05  H2
  H2O(g)           -2.07     -0.01    2.06  H2O
  H2S(g)         -140.07   -148.06   -7.99  H2S
  Halite           -2.46     -0.90    1.55  NaCl
  Hausmannite      -1.78     64.55   66.33  Mn3O4
  Hematite         15.18     12.79   -2.38  Fe2O3
  Hexahydrite      -2.85     -4.44   -1.59  MgSO4:6H2O
  Jarosite-K       -6.17    -13.73   -7.56  KFe3(SO4)2(OH)6
  Kieserite        -3.00     -4.40   -1.40  MgSO4:H2O
  Mackinawite    -144.13   -148.78   -4.65  FeS
  Manganite         3.06     28.40   25.34  MnOOH
  Melanterite     -17.92    -20.41   -2.49  FeSO4:7H2O
  Mirabilite       -1.49     -3.58   -2.09  Na2SO4:10H2O
  N2(g)            -8.14    -11.17   -3.03  N2
  O2(g)            -8.06    -10.77   -2.71  O2
  Pyrite         -236.45   -255.52  -19.07  FeS2
  Pyrochroite      -7.46      7.74   15.20  Mn(OH)2
  Pyrolusite        4.24     49.05   44.81  MnO2:H2O
  Quartz            0.23     -4.06   -4.30  SiO2
  Rhodochrosite    -3.22    -14.28  -11.05  MnCO3
  Sepiolite         1.90     18.22   16.32  Mg2Si3O7.5OH:3H2O
  Sepiolite(d)     -0.44     18.22   18.66  Mg2Si3O7.5OH:3H2O
  Siderite        -12.00    -22.75  -10.76  FeCO3
  SiO2(a)          -1.18     -4.06   -2.89  SiO2
  Sulfur         -104.87    -99.48    5.38  S
  Sylvite          -3.42     -2.63    0.79  KCl
  Talc              5.56     29.40   23.84  Mg3Si4O10(OH)2
  Thenardite       -4.39     -3.49    0.90  Na2SO4

**For a gas, SI = log10(fugacity). Fugacity = pressure * phi / 1 atm.
  For ideal gases, phi = 1.

Reaction step 3.

Using solution 1.	SEAWATER FROM NORDSTROM AND OTHERS (1979)
Using temperature 1.	

-----------------------------Solution composition------------------------------

	Elements           Molality       Moles

	Amm               1.724e-06   1.724e-06
	C                 2.233e-03   2.233e-03
	Ca                1.066e-02   1.066e-02
	Cl                5.657e-01   5.657e-01
	Fe                3.711e-08   3.711e-08
	K                 1.058e-02   1.058e-02
	Mg                5.507e-02   5.507e-02
	Mn                3.773e-09   3.773e-09
	N                 4.847e-06   4.847e-06
	Na                4.854e-01   4.854e-01
	S                 2.926e-02   2.926e-02
	Si                7.382e-05   7.382e-05

----------------------------Description of solution----------------------------

                                       pH  =   8.445      Charge balance
                                       pe  =  11.780      Adjusted to redox equilibrium
      Specific Conductance (µS/cm,  10°C)  = 37838
                          Density (g/cm³)  =   1.02686
                               Volume (L)  =   1.00924
                        Viscosity (mPa s)  =   1.39343
                        Activity of water  =   0.981
                 Ionic strength (mol/kgw)  =   6.792e-01
                       Mass of water (kg)  =   1.000e+00
                 Total alkalinity (eq/kg)  =   2.406e-03
                       Total CO2 (mol/kg)  =   2.233e-03
                         Temperature (°C)  =  10.00
                  Electrical balance (eq)  =   7.936e-04
 Percent error, 100*(Cat-|An|)/(Cat+|An|)  =   0.07
                               Iterations  =  20
                                  Total H  = 1.110148e+02
                                  Total O  = 5.563026e+01

----------------------------Distribution of species----------------------------

                                               Log       Log       Log    mole V
   Species          Molality    Activity  Molality  Activity     Gamma   cm³/mol

   OH-             1.308e-06   8.040e-07    -5.883    -6.095    -0.211     -3.62
   H+              4.729e-09   3.588e-09    -8.325    -8.445    -0.120      0.00
   H2O             5.551e+01   9.806e-01     1.744    -0.009     0.000     18.02
Amm           1.724e-06
   AmmH+           1.623e-06   9.226e-07    -5.790    -6.035    -0.245     17.95
   AmmHSO4-        5.917e-08   3.800e-08    -7.228    -7.420    -0.192     39.09
   Amm             4.098e-08   4.792e-08    -7.387    -7.319     0.068     23.51
C(-4)         0.000e+00
   CH4             0.000e+00   0.000e+00  -140.287  -140.219     0.068     33.98
C(4)          2.233e-03
   HCO3-           1.625e-03   1.119e-03    -2.789    -2.951    -0.162     26.32
   MgHCO3+         2.913e-04   1.848e-04    -3.536    -3.733    -0.198      5.20
   NaHCO3          1.281e-04   1.622e-04    -3.893    -3.790     0.103     16.18
   MgCO3           9.675e-05   1.131e-04    -4.014    -3.946     0.068    -17.07
   CO3-2           4.739e-05   1.014e-05    -4.324    -4.994    -0.669     -2.69
   CaCO3           3.091e-05   3.614e-05    -4.510    -4.442     0.068    -14.66
   CO2             1.073e-05   1.190e-05    -4.969    -4.925     0.045     34.06
   KHCO3           2.145e-06   2.508e-06    -5.669    -5.601     0.068     20.03
   MnCO3           3.437e-10   4.018e-10    -9.464    -9.396     0.068     (0)  
   MnHCO3+         7.443e-11   4.974e-11   -10.128   -10.303    -0.175     (0)  
   CaHCO3+         1.106e-11   7.702e-12   -10.956   -11.113    -0.157      9.18
   (CO2)2          8.705e-13   9.652e-13   -12.060   -12.015     0.045     67.29
   FeCO3           4.597e-19   5.375e-19   -18.338   -18.270     0.068     (0)  
   FeHCO3+         3.285e-19   2.472e-19   -18.483   -18.607    -0.123     (0)  
Ca            1.066e-02
   Ca+2            1.010e-02   2.607e-03    -1.996    -2.584    -0.588    -17.23
   CaSO4           5.298e-04   5.680e-04    -3.276    -3.246     0.030      5.24
   CaCO3           3.091e-05   3.614e-05    -4.510    -4.442     0.068    -14.66
   CaOH+           1.572e-07   1.183e-07    -6.804    -6.927    -0.123     (0)  
   CaHSO4+         2.773e-11   2.087e-11   -10.557   -10.680    -0.123     (0)  
   CaHCO3+         1.106e-11   7.702e-12   -10.956   -11.113    -0.157      9.18
Cl            5.657e-01
   Cl-             5.657e-01   3.601e-01    -0.247    -0.444    -0.196     18.04
   MnCl+           1.095e-09   7.317e-10    -8.961    -9.136    -0.175     -7.87
   HCl             2.511e-10   4.885e-10    -9.600    -9.311     0.289     19.06
   MnCl2           9.838e-11   1.150e-10   -10.007    -9.939     0.068    109.25
   MnCl3-          1.707e-11   1.141e-11   -10.768   -10.943    -0.175     45.85
   FeCl+2          1.769e-18   3.527e-19   -17.752   -18.453    -0.700     (0)  
   FeCl+           1.460e-18   1.098e-18   -17.836   -17.959    -0.123     (0)  
   FeCl2+          1.401e-18   9.362e-19   -17.854   -18.029    -0.175     (0)  
   FeCl3           2.883e-20   3.372e-20   -19.540   -19.472     0.068     (0)  
Fe(2)         1.237e-17
   Fe+2            9.384e-18   2.209e-18   -17.028   -17.656    -0.628    -21.92
   FeCl+           1.460e-18   1.098e-18   -17.836   -17.959    -0.123     (0)  
   FeSO4           6.523e-19   7.628e-19   -18.186   -18.118     0.068     28.99
   FeCO3           4.597e-19   5.375e-19   -18.338   -18.270     0.068     (0)  
   FeHCO3+         3.285e-19   2.472e-19   -18.483   -18.607    -0.123     (0)  
   FeOH+           8.778e-20   5.866e-20   -19.057   -19.232    -0.175     (0)  
   Fe(OH)2         2.955e-23   3.455e-23   -22.529   -22.462     0.068     (0)  
   Fe(OH)3-        4.496e-25   3.004e-25   -24.347   -24.522    -0.175     (0)  
   FeHSO4+         2.350e-26   1.768e-26   -25.629   -25.752    -0.123     (0)  
   Fe(HS)2         0.000e+00   0.000e+00  -282.402  -282.334     0.068     (0)  
   Fe(HS)3-        0.000e+00   0.000e+00  -416.988  -417.111    -0.123     (0)  
Fe(3)         3.711e-08
   Fe(OH)3         2.803e-08   3.277e-08    -7.552    -7.485     0.068     (0)  
   Fe(OH)4-        6.365e-09   4.330e-09    -8.196    -8.364    -0.167     (0)  
   Fe(OH)2+        2.724e-09   1.853e-09    -8.565    -8.732    -0.167     (0)  
   FeOH+2          1.868e-13   3.726e-14   -12.729   -13.429    -0.700     (0)  
   FeCl+2          1.769e-18   3.527e-19   -17.752   -18.453    -0.700     (0)  
   FeSO4+          1.604e-18   1.072e-18   -17.795   -17.970    -0.175     (0)  
   FeCl2+          1.401e-18   9.362e-19   -17.854   -18.029    -0.175     (0)  
   Fe+3            6.433e-19   5.351e-20   -18.192   -19.272    -1.080     (0)  
   Fe(SO4)2-       7.593e-20   5.714e-20   -19.120   -19.243    -0.123     (0)  
   FeCl3           2.883e-20   3.372e-20   -19.540   -19.472     0.068     (0)  
   Fe2(OH)2+4      6.789e-24   7.177e-26   -23.168   -25.144    -1.976     (0)  
   FeHSO4+2        3.355e-26   1.076e-26   -25.474   -25.968    -0.494     (0)  
   Fe3(OH)4+5      1.459e-28   1.193e-31   -27.836   -30.923    -3.087     (0)  
H(0)          0.000e+00
   H2              0.000e+00   0.000e+00   -43.603   -43.532     0.071     13.63
K             1.058e-02
   K+              1.031e-02   6.485e-03    -1.987    -2.188    -0.201      9.08
   KSO4-           2.692e-04   2.464e-04    -3.570    -3.608    -0.038     35.55
   KHCO3           2.145e-06   2.508e-06    -5.669    -5.601     0.068     20.03
Mg            5.507e-02
   Mg+2            4.945e-02   1.472e-02    -1.306    -1.832    -0.526    -19.99
   MgSO4           4.952e-03   6.771e-03    -2.305    -2.169     0.136     -2.02
   MgHCO3+         2.913e-04   1.848e-04    -3.536    -3.733    -0.198      5.20
   Mg(SO4)2-2      2.676e-04   7.759e-05    -3.573    -4.110    -0.538     41.68
   MgCO3           9.675e-05   1.131e-04    -4.014    -3.946     0.068    -17.07
   MgOH+           4.948e-06   3.508e-06    -5.306    -5.455    -0.149     (0)  
Mn(2)         3.773e-09
   Mn+2            2.119e-09   4.987e-10    -8.674    -9.302    -0.628    -16.85
   MnCl+           1.095e-09   7.317e-10    -8.961    -9.136    -0.175     -7.87
   MnCO3           3.437e-10   4.018e-10    -9.464    -9.396     0.068     (0)  
   MnCl2           9.838e-11   1.150e-10   -10.007    -9.939     0.068    109.25
   MnHCO3+         7.443e-11   4.974e-11   -10.128   -10.303    -0.175     (0)  
   MnSO4           2.432e-11   2.087e-11   -10.614   -10.681    -0.067     16.93
   MnCl3-          1.707e-11   1.141e-11   -10.768   -10.943    -0.175     45.85
   MnOH+           1.447e-12   9.670e-13   -11.840   -12.015    -0.175     (0)  
   Mn(OH)3-        2.415e-19   1.614e-19   -18.617   -18.792    -0.175     (0)  
   Mn(NO3)2        1.452e-20   1.698e-20   -19.838   -19.770     0.068     46.00
Mn(3)         1.112e-23
   Mn+3            1.112e-23   9.249e-25   -22.954   -24.034    -1.080     (0)  
N(0)          1.813e-11
   N2              9.063e-12   1.060e-11   -11.043   -10.975     0.068     29.29
N(3)          3.257e-16
   NO2-            3.257e-16   1.930e-16   -15.487   -15.714    -0.227     24.54
N(5)          4.847e-06
   NO3-            4.847e-06   2.873e-06    -5.314    -5.542    -0.227     28.48
   Mn(NO3)2        1.452e-20   1.698e-20   -19.838   -19.770     0.068     46.00
Na            4.854e-01
   Na+             4.761e-01   3.449e-01    -0.322    -0.462    -0.140     -1.36
   NaSO4-          9.138e-03   6.641e-03    -2.039    -2.178    -0.139     20.56
   NaHCO3          1.281e-04   1.622e-04    -3.893    -3.790     0.103     16.18
   Na2SO4          1.972e-07   2.264e-07    -6.705    -6.645     0.060     57.31
O(0)          4.530e-11
   O2              2.265e-11   2.648e-11   -10.645   -10.577     0.068     28.95
S(-2)         0.000e+00
   HS-             0.000e+00   0.000e+00  -136.603  -136.814    -0.211     20.26
   H2S             0.000e+00   0.000e+00  -138.161  -138.093     0.068     31.64
   S-2             0.000e+00   0.000e+00  -141.057  -141.757    -0.700     (0)  
   (H2S)2          0.000e+00   0.000e+00  -277.715  -277.648     0.068     30.64
   Fe(HS)2         0.000e+00   0.000e+00  -282.402  -282.334     0.068     (0)  
   Fe(HS)3-        0.000e+00   0.000e+00  -416.988  -417.111    -0.123     (0)  
S(6)          2.926e-02
   SO4-2           1.383e-02   2.592e-03    -1.859    -2.586    -0.727     14.37
   NaSO4-          9.138e-03   6.641e-03    -2.039    -2.178    -0.139     20.56
   MgSO4           4.952e-03   6.771e-03    -2.305    -2.169     0.136     -2.02
   CaSO4           5.298e-04   5.680e-04    -3.276    -3.246     0.030      5.24
   KSO4-           2.692e-04   2.464e-04    -3.570    -3.608    -0.038     35.55
   Mg(SO4)2-2      2.676e-04   7.759e-05    -3.573    -4.110    -0.538     41.68
   Na2SO4          1.972e-07   2.264e-07    -6.705    -6.645     0.060     57.31
   AmmHSO4-        5.917e-08   3.800e-08    -7.228    -7.420    -0.192     39.09
   HSO4-           8.847e-10   6.657e-10    -9.053    -9.177    -0.123     39.53
   CaHSO4+         2.773e-11   2.087e-11   -10.557   -10.680    -0.123     (0)  
   MnSO4           2.432e-11   2.087e-11   -10.614   -10.681    -0.067     16.93
   FeSO4+          1.604e-18   1.072e-18   -17.795   -17.970    -0.175     (0)  
   FeSO4           6.523e-19   7.628e-19   -18.186   -18.118     0.068     28.99
   Fe(SO4)2-       7.593e-20   5.714e-20   -19.120   -19.243    -0.123     (0)  
   FeHSO4+2        3.355e-26   1.076e-26   -25.474   -25.968    -0.494     (0)  
   FeHSO4+         2.350e-26   1.768e-26   -25.629   -25.752    -0.123     (0)  
Si            7.382e-05
   H4SiO4          7.081e-05   8.280e-05    -4.150    -4.082     0.068     53.67
   H3SiO4-         3.013e-06   1.911e-06    -5.521    -5.719    -0.198     28.04
   H2SiO4-2        5.816e-11   1.245e-11   -10.235   -10.905    -0.669     (0)  

------------------------------Saturation indices-------------------------------

  Phase               SI** log IAP   log K(283 K,   1 atm)

  Amm(g)           -9.45     -7.32    2.13  Amm
  Anhydrite        -1.09     -5.17   -4.08  CaSO4
  Aragonite         0.68     -7.58   -8.26  CaCO3
  Arcanite         -4.85     -6.96   -2.11  K2SO4
  Calcite           0.77     -7.58   -8.35  CaCO3
  CH4(g)         -137.59   -140.22   -2.63  CH4
  Chalcedony       -0.33     -4.06   -3.73  SiO2
  Chrysotile        2.85     37.00   34.16  Mg3Si2O5(OH)4
  CO2(g)           -3.66     -4.92   -1.27  CO2
  Dolomite          2.48    -14.40  -16.88  CaMg(CO3)2
  Epsomite         -2.65     -4.48   -1.83  MgSO4:7H2O
  Fe(OH)3(a)        1.15      6.04    4.89  Fe(OH)3
  FeS(ppt)       -142.11   -146.02   -3.92  FeS
  Goethite          6.48      6.05   -0.44  FeOOH
  Gypsum           -0.68     -5.19   -4.51  CaSO4:2H2O
  H2(g)           -40.47    -43.53   -3.06  H2
  H2O(g)           -1.92     -0.01    1.91  H2O
  H2S(g)         -137.28   -145.26   -7.98  H2S
  Halite           -2.46     -0.91    1.56  NaCl
  Hausmannite      -1.76     63.18   64.94  Mn3O4
  Hematite         14.91     12.10   -2.81  Fe2O3
  Hexahydrite      -2.88     -4.47   -1.59  MgSO4:6H2O
  Jarosite-K       -6.56    -14.56   -8.00  KFe3(SO4)2(OH)6
  Kieserite        -3.11     -4.43   -1.31  MgSO4:H2O
  Mackinawite    -141.38   -146.02   -4.65  FeS
  Manganite         2.46     27.80   25.34  MnOOH
  Melanterite     -17.89    -20.30   -2.41  FeSO4:7H2O
  Mirabilite       -1.84     -3.60   -1.76  Na2SO4:10H2O
  N2(g)            -7.91    -10.97   -3.07  N2
  O2(g)            -7.81    -10.58   -2.77  O2
  Pyrite         -231.92   -250.83  -18.92  FeS2
  Pyrochroite      -7.63      7.57   15.20  Mn(OH)2
  Pyrolusite        4.10     48.01   43.91  MnO2:H2O
  Quartz            0.15     -4.06   -4.21  SiO2
  Rhodochrosite    -3.22    -14.30  -11.07  MnCO3
  Sepiolite         1.70     17.87   16.18  Mg2Si3O7.5OH:3H2O
  Sepiolite(d)     -0.79     17.87   18.66  Mg2Si3O7.5OH:3H2O
  Siderite        -11.86    -22.65  -10.79  FeCO3
  SiO2(a)          -1.22     -4.06   -2.84  SiO2
  Sulfur         -102.89    -97.64    5.25  S
  Sylvite          -3.45     -2.63    0.82  KCl
  Talc              5.68     28.88   23.20  Mg3Si4O10(OH)2
  Thenardite       -4.35     -3.51    0.84  Na2SO4

**For a gas, SI = log10(fugacity). Fugacity = pressure * phi / 1 atm.
  For ideal gases, phi = 1.

Reaction step 4.

Using solution 1.	SEAWATER FROM NORDSTROM AND OTHERS (1979)
Using temperature 1.	

-----------------------------Solution composition------------------------------

	Elements           Molality       Moles

	Amm               1.724e-06   1.724e-06
	C                 2.233e-03   2.233e-03
	Ca                1.066e-02   1.066e-02
	Cl                5.657e-01   5.657e-01
	Fe                3.711e-08   3.711e-08
	K                 1.058e-02   1.058e-02
	Mg                5.507e-02   5.507e-02
	Mn                3.773e-09   3.773e-09
	N                 4.847e-06   4.847e-06
	Na                4.854e-01   4.854e-01
	S                 2.926e-02   2.926e-02
	Si                7.382e-05   7.382e-05

----------------------------Description of solution----------------------------

                                       pH  =   8.366      Charge balance
                                       pe  =  11.438      Adjusted to redox equilibrium
      Specific Conductance (µS/cm,  15°C)  = 42737
                          Density (g/cm³)  =   1.02588
                               Volume (L)  =   1.01021
                        Viscosity (mPa s)  =   1.21745
                        Activity of water  =   0.981
                 Ionic strength (mol/kgw)  =   6.773e-01
                       Mass of water (kg)  =   1.000e+00
                 Total alkalinity (eq/kg)  =   2.406e-03
                       Total CO2 (mol/kg)  =   2.233e-03
                         Temperature (°C)  =  15.00
                  Electrical balance (eq)  =   7.936e-04
 Percent error, 100*(Cat-|An|)/(Cat+|An|)  =   0.07
                               Iterations  =  19
                                  Total H  = 1.110148e+02
                                  Total O  = 5.563026e+01

----------------------------Distribution of species----------------------------

                                               Log       Log       Log    mole V
   Species          Molality    Activity  Molality  Activity     Gamma   cm³/mol

   OH-             1.687e-06   1.034e-06    -5.773    -5.986    -0.213     -3.21
   H+              5.680e-09   4.302e-09    -8.246    -8.366    -0.121      0.00
   H2O             5.551e+01   9.806e-01     1.744    -0.009     0.000     18.03
Amm           1.724e-06
   AmmH+           1.611e-06   9.123e-07    -5.793    -6.040    -0.247     18.17
   AmmHSO4-        6.323e-08   4.054e-08    -7.199    -7.392    -0.193     39.26
   Amm             4.973e-08   5.813e-08    -7.303    -7.236     0.068     23.89
C(-4)         0.000e+00
   CH4             0.000e+00   0.000e+00  -137.601  -137.533     0.068     34.53
C(4)          2.233e-03
   HCO3-           1.622e-03   1.114e-03    -2.790    -2.953    -0.163     26.98
   MgHCO3+         2.885e-04   1.825e-04    -3.540    -3.739    -0.199      5.45
   NaHCO3          1.341e-04   1.697e-04    -3.873    -3.770     0.102     16.75
   MgCO3           9.790e-05   1.144e-04    -4.009    -3.941     0.068    -17.08
   CO3-2           4.553e-05   9.659e-06    -4.342    -5.015    -0.673     -1.84
   CaCO3           3.032e-05   3.544e-05    -4.518    -4.451     0.068    -14.63
   CO2             1.157e-05   1.283e-05    -4.937    -4.892     0.045     34.32
   KHCO3           2.330e-06   2.724e-06    -5.633    -5.565     0.068     20.57
   MnCO3           3.271e-10   3.823e-10    -9.485    -9.418     0.068     (0)  
   MnHCO3+         7.424e-11   4.949e-11   -10.129   -10.305    -0.176     (0)  
   CaHCO3+         3.735e-11   2.597e-11   -10.428   -10.586    -0.158      9.49
   (CO2)2          1.386e-12   1.537e-12   -11.858   -11.813     0.045     67.80
   FeCO3           5.713e-19   6.677e-19   -18.243   -18.175     0.068     (0)  
   FeHCO3+         4.279e-19   3.212e-19   -18.369   -18.493    -0.125     (0)  
Ca            1.066e-02
   Ca+2            1.004e-02   2.566e-03    -1.998    -2.591    -0.592    -17.01
   CaSO4           5.919e-04   6.345e-04    -3.228    -3.198     0.030      6.01
   CaCO3           3.032e-05   3.544e-05    -4.518    -4.451     0.068    -14.63
   CaOH+           1.293e-07   9.705e-08    -6.888    -7.013    -0.125     (0)  
   CaHCO3+         3.735e-11   2.597e-11   -10.428   -10.586    -0.158      9.49
   CaHSO4+         3.457e-11   2.595e-11   -10.461   -10.586    -0.125     (0)  
Cl            5.657e-01
   Cl-             5.657e-01   3.591e-01    -0.247    -0.445    -0.197     18.36
   MnCl+           1.093e-09   7.290e-10    -8.961    -9.137    -0.176     -5.82
   HCl             2.916e-10   5.663e-10    -9.535    -9.247     0.288     19.56
   MnCl2           9.777e-11   1.143e-10   -10.010    -9.942     0.068    100.17
   MnCl3-          1.695e-11   1.130e-11   -10.771   -10.947    -0.176     45.85
   FeCl+           1.903e-18   1.429e-18   -17.721   -17.845    -0.125     (0)  
   FeCl+2          1.693e-18   3.344e-19   -17.771   -18.476    -0.704     (0)  
   FeCl2+          1.117e-18   7.447e-19   -17.952   -18.128    -0.176     (0)  
   FeCl3           2.288e-20   2.674e-20   -19.641   -19.573     0.068     (0)  
Fe(2)         1.629e-17
   Fe+2            1.234e-17   2.882e-18   -16.909   -17.540    -0.632    -21.46
   FeCl+           1.903e-18   1.429e-18   -17.721   -17.845    -0.125     (0)  
   FeSO4           8.995e-19   1.051e-18   -18.046   -17.978     0.068     29.49
   FeCO3           5.713e-19   6.677e-19   -18.243   -18.175     0.068     (0)  
   FeHCO3+         4.279e-19   3.212e-19   -18.369   -18.493    -0.125     (0)  
   FeOH+           1.438e-19   9.587e-20   -18.842   -19.018    -0.176     (0)  
   Fe(OH)2         6.469e-23   7.561e-23   -22.189   -22.121     0.068     (0)  
   Fe(OH)3-        8.676e-25   5.784e-25   -24.062   -24.238    -0.176     (0)  
   FeHSO4+         3.883e-26   2.915e-26   -25.411   -25.535    -0.125     (0)  
   Fe(HS)2         0.000e+00   0.000e+00  -277.044  -276.977     0.068     (0)  
   Fe(HS)3-        0.000e+00   0.000e+00  -409.008  -409.133    -0.125     (0)  
Fe(3)         3.711e-08
   Fe(OH)3         2.794e-08   3.266e-08    -7.554    -7.486     0.068     (0)  
   Fe(OH)4-        6.599e-09   4.479e-09    -8.181    -8.349    -0.168     (0)  
   Fe(OH)2+        2.573e-09   1.746e-09    -8.590    -8.758    -0.168     (0)  
   FeOH+2          1.734e-13   3.426e-14   -12.761   -13.465    -0.704     (0)  
   FeCl+2          1.693e-18   3.344e-19   -17.771   -18.476    -0.704     (0)  
   FeSO4+          1.388e-18   9.253e-19   -17.858   -18.034    -0.176     (0)  
   FeCl2+          1.117e-18   7.447e-19   -17.952   -18.128    -0.176     (0)  
   Fe+3            5.220e-19   4.281e-20   -18.282   -19.368    -1.086     (0)  
   Fe(SO4)2-       6.419e-20   4.819e-20   -19.193   -19.317    -0.125     (0)  
   FeCl3           2.288e-20   2.674e-20   -19.641   -19.573     0.068     (0)  
   Fe2(OH)2+4      4.764e-24   4.844e-26   -23.322   -25.315    -1.993     (0)  
   FeHSO4+2        3.425e-26   1.088e-26   -25.465   -25.964    -0.498     (0)  
   Fe3(OH)4+5      5.965e-29   4.591e-32   -28.224   -31.338    -3.114     (0)  
H(0)          0.000e+00
   H2              0.000e+00   0.000e+00   -42.785   -42.714     0.071     14.15
K             1.058e-02
   K+              1.032e-02   6.472e-03    -1.986    -2.189    -0.202      9.31
   KSO4-           2.595e-04   2.369e-04    -3.586    -3.626    -0.040     35.43
   KHCO3           2.330e-06   2.724e-06    -5.633    -5.565     0.068     20.57
Mg            5.507e-02
   Mg+2            4.911e-02   1.448e-02    -1.309    -1.839    -0.531    -20.14
   MgSO4           5.311e-03   7.255e-03    -2.275    -2.139     0.135     -1.40
   MgHCO3+         2.885e-04   1.825e-04    -3.540    -3.739    -0.199      5.45
   Mg(SO4)2-2      2.494e-04   7.178e-05    -3.603    -4.144    -0.541     44.17
   MgCO3           9.790e-05   1.144e-04    -4.009    -3.941     0.068    -17.08
   MgOH+           6.650e-06   4.706e-06    -5.177    -5.327    -0.150     (0)  
Mn(2)         3.773e-09
   Mn+2            2.134e-09   4.983e-10    -8.671    -9.303    -0.632    -16.63
   MnCl+           1.093e-09   7.290e-10    -8.961    -9.137    -0.176     -5.82
   MnCO3           3.271e-10   3.823e-10    -9.485    -9.418     0.068     (0)  
   MnCl2           9.777e-11   1.143e-10   -10.010    -9.942     0.068    100.17
   MnHCO3+         7.424e-11   4.949e-11   -10.129   -10.305    -0.176     (0)  
   MnSO4           2.723e-11   2.337e-11   -10.565   -10.631    -0.066     17.02
   MnCl3-          1.695e-11   1.130e-11   -10.771   -10.947    -0.176     45.85
   MnOH+           1.884e-12   1.256e-12   -11.725   -11.901    -0.176     (0)  
   Mn(OH)3-        1.402e-19   9.350e-20   -18.853   -19.029    -0.176     (0)  
   Mn(NO3)2        1.425e-20   1.666e-20   -19.846   -19.778     0.068     44.09
Mn(3)         1.136e-23
   Mn+3            1.136e-23   9.317e-25   -22.945   -24.031    -1.086     (0)  
N(0)          2.767e-11
   N2              1.383e-11   1.617e-11   -10.859   -10.791     0.068     29.29
N(3)          5.867e-16
   NO2-            5.867e-16   3.467e-16   -15.232   -15.460    -0.228     25.01
N(5)          4.847e-06
   NO3-            4.847e-06   2.864e-06    -5.314    -5.543    -0.228     29.19
   Mn(NO3)2        1.425e-20   1.666e-20   -19.846   -19.778     0.068     44.09
Na            4.854e-01
   Na+             4.760e-01   3.438e-01    -0.322    -0.464    -0.141     -1.02
   NaSO4-          9.244e-03   6.696e-03    -2.034    -2.174    -0.140     21.03
   NaHCO3          1.341e-04   1.697e-04    -3.873    -3.770     0.102     16.75
   Na2SO4          3.451e-07   3.962e-07    -6.462    -6.402     0.060     53.68
O(0)          6.906e-11
   O2              3.453e-11   4.036e-11   -10.462   -10.394     0.068     29.51
S(-2)         0.000e+00
   HS-             0.000e+00   0.000e+00  -133.981  -134.193    -0.213     20.70
   H2S             0.000e+00   0.000e+00  -135.542  -135.475     0.068     33.43
   S-2             0.000e+00   0.000e+00  -138.348  -139.053    -0.704     (0)  
   (H2S)2          0.000e+00   0.000e+00  -272.413  -272.345     0.068     30.48
   Fe(HS)2         0.000e+00   0.000e+00  -277.044  -276.977     0.068     (0)  
   Fe(HS)3-        0.000e+00   0.000e+00  -409.008  -409.133    -0.125     (0)  
S(6)          2.926e-02
   SO4-2           1.335e-02   2.479e-03    -1.874    -2.606    -0.731     15.51
   NaSO4-          9.244e-03   6.696e-03    -2.034    -2.174    -0.140     21.03
   MgSO4           5.311e-03   7.255e-03    -2.275    -2.139     0.135     -1.40
   CaSO4           5.919e-04   6.345e-04    -3.228    -3.198     0.030      6.01
   KSO4-           2.595e-04   2.369e-04    -3.586    -3.626    -0.040     35.43
   Mg(SO4)2-2      2.494e-04   7.178e-05    -3.603    -4.144    -0.541     44.17
   Na2SO4          3.451e-07   3.962e-07    -6.462    -6.402     0.060     53.68
   AmmHSO4-        6.323e-08   4.054e-08    -7.199    -7.392    -0.193     39.26
   HSO4-           1.121e-09   8.413e-10    -8.950    -9.075    -0.125     40.10
   CaHSO4+         3.457e-11   2.595e-11   -10.461   -10.586    -0.125     (0)  
   MnSO4           2.723e-11   2.337e-11   -10.565   -10.631    -0.066     17.02
   FeSO4+          1.388e-18   9.253e-19   -17.858   -18.034    -0.176     (0)  
   FeSO4           8.995e-19   1.051e-18   -18.046   -17.978     0.068     29.49
   Fe(SO4)2-       6.419e-20   4.819e-20   -19.193   -19.317    -0.125     (0)  
   FeHSO4+         3.883e-26   2.915e-26   -25.411   -25.535    -0.125     (0)  
   FeHSO4+2        3.425e-26   1.088e-26   -25.465   -25.964    -0.498     (0)  
Si            7.382e-05
   H4SiO4          7.073e-05   8.267e-05    -4.150    -4.083     0.068     53.05
   H3SiO4-         3.089e-06   1.954e-06    -5.510    -5.709    -0.199     28.32
   H2SiO4-2        7.294e-11   1.548e-11   -10.137   -10.810    -0.673     (0)  

------------------------------Saturation indices-------------------------------

  Phase               SI** log IAP   log K(288 K,   1 atm)

  Amm(g)           -9.25     -7.24    2.01  Amm
  Anhydrite        -1.04     -5.20   -4.16  CaSO4
  Aragonite         0.67     -7.61   -8.28  CaCO3
  Arcanite         -4.96     -6.98   -2.02  K2SO4
  Calcite           0.77     -7.61   -8.38  CaCO3
  CH4(g)         -134.84   -137.53   -2.70  CH4
  Chalcedony       -0.39     -4.07   -3.67  SiO2
  Chrysotile        3.02     36.51   33.48  Mg3Si2O5(OH)4
  CO2(g)           -3.55     -4.89   -1.34  CO2
  Dolomite          2.48    -14.46  -16.94  CaMg(CO3)2
  Epsomite         -2.70     -4.50   -1.80  MgSO4:7H2O
  Fe(OH)3(a)        0.81      5.70    4.89  Fe(OH)3
  FeS(ppt)       -139.45   -143.37   -3.92  FeS
  Goethite          6.35      5.71   -0.63  FeOOH
  Gypsum           -0.69     -5.21   -4.52  CaSO4:2H2O
  H2(g)           -39.64    -42.71   -3.08  H2
  H2O(g)           -1.78     -0.01    1.77  H2O
  H2S(g)         -134.60   -142.56   -7.96  H2S
  Halite           -2.47     -0.91    1.56  NaCl
  Hausmannite      -1.73     61.86   63.59  Mn3O4
  Hematite         14.66     11.44   -3.22  Fe2O3
  Hexahydrite      -2.92     -4.50   -1.58  MgSO4:6H2O
  Jarosite-K       -6.95    -15.36   -8.41  KFe3(SO4)2(OH)6
  Kieserite        -3.21     -4.45   -1.25  MgSO4:H2O
  Mackinawite    -138.72   -143.37   -4.65  FeS
  Manganite         1.88     27.22   25.34  MnOOH
  Melanterite     -17.87    -20.21   -2.34  FeSO4:7H2O
  Mirabilite       -2.20     -3.62   -1.42  Na2SO4:10H2O
  N2(g)            -7.68    -10.79   -3.11  N2
  O2(g)            -7.58    -10.39   -2.81  O2
  Pyrite         -227.55   -246.32  -18.77  FeS2
  Pyrochroite      -7.79      7.41   15.20  Mn(OH)2
  Pyrolusite        3.98     47.01   43.04  MnO2:H2O
  Quartz            0.07     -4.07   -4.13  SiO2
  Rhodochrosite    -3.22    -14.32  -11.09  MnCO3
  Sepiolite         1.51     17.54   16.03  Mg2Si3O7.5OH:3H2O
  Sepiolite(d)     -1.12     17.54   18.66  Mg2Si3O7.5OH:3H2O
  Siderite        -11.73    -22.56  -10.83  FeCO3
  SiO2(a)          -1.27     -4.07   -2.80  SiO2
  Sulfur         -100.99    -95.87    5.12  S
  Sylvite          -3.48     -2.63    0.85  KCl
  Talc              5.81     28.38   22.58  Mg3Si4O10(OH)2
  Thenardite       -4.31     -3.53    0.78  Na2SO4

**For a gas, SI = log10(fugacity). Fugacity = pressure * phi / 1 atm.
  For ideal gases, phi = 1.

Reaction step 5.

Using solution 1.	SEAWATER FROM NORDSTROM AND OTHERS (1979)
Using temperature 1.	

-----------------------------Solution composition------------------------------

	Elements           Molality       Moles

	Amm               1.724e-06   1.724e-06
	C                 2.233e-03   2.233e-03
	Ca                1.066e-02   1.066e-02
	Cl                5.657e-01   5.657e-01
	Fe                3.711e-08   3.711e-08
	K                 1.058e-02   1.058e-02
	Mg                5.507e-02   5.507e-02
	Mn                3.773e-09   3.773e-09
	N                 4.847e-06   4.847e-06
	Na                4.854e-01   4.854e-01
	S                 2.926e-02   2.926e-02
	Si                7.382e-05   7.382e-05

----------------------------Description of solution----------------------------

                                       pH  =   8.291      Charge balance
                                       pe  =  11.107      Adjusted to redox equilibrium
      Specific Conductance (µS/cm,  20°C)  = 47772
                          Density (g/cm³)  =   1.02467
                               Volume (L)  =   1.01139
                        Viscosity (mPa s)  =   1.07444
                        Activity of water  =   0.981
                 Ionic strength (mol/kgw)  =   6.755e-01
                       Mass of water (kg)  =   1.000e+00
                 Total alkalinity (eq/kg)  =   2.406e-03
                       Total CO2 (mol/kg)  =   2.233e-03
[...]
   Mn+3            1.706e-23   1.466e-24   -22.768   -23.834    -1.066     (0)  
N(0)          1.043e-10
   N2              5.213e-11   6.085e-11   -10.283   -10.216     0.067     29.29
N(3)          3.521e-15
   NO2-            3.521e-15   2.100e-15   -14.453   -14.678    -0.224     25.74
N(5)          4.847e-06
   NO3-            4.847e-06   2.891e-06    -5.314    -5.539    -0.224     29.79
   Mn(NO3)2        2.003e-20   2.338e-20   -19.698   -19.631     0.067     39.20
Na            4.854e-01
   Na+             4.747e-01   3.453e-01    -0.324    -0.462    -0.138      2.16
   NaSO4-          1.049e-02   7.658e-03    -1.979    -2.116    -0.137     25.69
   NaHCO3          2.170e-04   2.741e-04    -3.664    -3.562     0.101     23.85
   Na2SO4          1.428e-06   1.638e-06    -5.845    -5.786     0.059     46.06
O(0)          2.606e-10
   O2              1.303e-10   1.521e-10    -9.885    -9.818     0.067     29.72
S(-2)         0.000e+00
   HS-             0.000e+00   0.000e+00  -124.806  -125.015    -0.209     21.84
   H2S             0.000e+00   0.000e+00  -126.056  -125.989     0.067     29.41
   S-2             0.000e+00   0.000e+00  -128.911  -129.603    -0.691     (0)  
   (H2S)2          0.000e+00   0.000e+00  -253.304  -253.236     0.067     63.53
   Fe(HS)2         0.000e+00   0.000e+00  -257.547  -257.479     0.067     (0)  
   Fe(HS)3-        0.000e+00   0.000e+00  -379.959  -380.083    -0.123     (0)  
S(6)          2.926e-02
   SO4-2           1.157e-02   2.213e-03    -1.937    -2.655    -0.718     24.06
   NaSO4-          1.049e-02   7.658e-03    -1.979    -2.116    -0.137     25.69
   MgSO4           5.574e-03   7.595e-03    -2.254    -2.119     0.134     18.59
   CaSO4           1.134e-03   1.214e-03    -2.946    -2.916     0.030      9.31
   KSO4-           2.569e-04   2.356e-04    -3.590    -3.628    -0.038     35.63
   Mg(SO4)2-2      1.145e-04   3.375e-05    -3.941    -4.472    -0.531     50.70
   Na2SO4          1.428e-06   1.638e-06    -5.845    -5.786     0.059     46.06
   AmmHSO4-        1.081e-07   6.983e-08    -6.966    -7.156    -0.190     38.48
   HSO4-           4.160e-09   3.132e-09    -8.381    -8.504    -0.123     39.66
   CaHSO4+         3.801e-10   2.861e-10    -9.420    -9.543    -0.123     (0)  
   MnSO4           3.847e-11   3.306e-11   -10.415   -10.481    -0.066     16.07
   FeSO4+          4.795e-18   3.221e-18   -17.319   -17.492    -0.173     (0)  
   FeSO4           2.296e-18   2.680e-18   -17.639   -17.572     0.067     29.58
   Fe(SO4)2-       5.565e-19   4.189e-19   -18.255   -18.378    -0.123     (0)  
   FeHSO4+         1.701e-24   1.280e-24   -23.769   -23.893    -0.123     (0)  
   FeHSO4+2        5.844e-25   1.877e-25   -24.233   -24.727    -0.493     (0)  
Si            7.382e-05
   H4SiO4          7.094e-05   8.281e-05    -4.149    -4.082     0.067     52.17
   H3SiO4-         2.882e-06   1.838e-06    -5.540    -5.736    -0.195     30.70
   H2SiO4-2        1.657e-10   3.616e-11    -9.781   -10.442    -0.661     (0)  

------------------------------Saturation indices-------------------------------

  Phase               SI** log IAP   log K(308 K, 1000 atm)

  Amm(g)           -8.58     -7.42    1.15  Amm
  Anhydrite        -1.36     -5.26   -3.90  CaSO4
  Aragonite        -0.03     -7.77   -7.74  CaCO3
  Arcanite         -5.56     -7.03   -1.47  K2SO4
  Calcite           0.04     -7.77   -7.81  CaCO3
  CH4(g)         -124.55   -128.07   -3.51  CH4
  Chalcedony       -0.72     -4.06   -3.34  SiO2
  Chrysotile        0.83     32.34   31.51  Mg3Si2O5(OH)4
  CO2(g)           -2.54     -4.71   -2.16  CO2
  Dolomite          1.18    -14.77  -15.94  CaMg(CO3)2
  Epsomite         -3.14     -4.54   -1.40  MgSO4:7H2O
  Fe(OH)3(a)       -0.40      3.60    3.99  Fe(OH)3
  FeS(ppt)       -130.21   -134.25   -4.04  FeS
  Goethite          5.19      3.60   -1.58  FeOOH
  Gypsum           -1.13     -5.28   -4.14  CaSO4:2H2O
  H2(g)           -36.52    -39.91   -3.39  H2
  H2O(g)           -0.97     -0.01    0.96  H2O
  H2S(g)         -124.39   -132.68   -8.30  H2S
  Halite           -2.58     -0.90    1.67  NaCl
  Hausmannite      -3.50     54.49   57.99  Mn3O4
  Hematite         12.33      7.22   -5.12  Fe2O3
  Hexahydrite      -3.30     -4.54   -1.24  MgSO4:6H2O
  Jarosite-K       -6.91    -19.69  -12.78  KFe3(SO4)2(OH)6
  Kieserite        -3.83     -4.49   -0.67  MgSO4:H2O
  Mackinawite    -129.82   -134.25   -4.42  FeS
  Manganite        -0.69     24.23   24.93  MnOOH
  Melanterite     -15.26    -19.61   -4.35  FeSO4:7H2O
  Mirabilite       -3.93     -3.66    0.27  Na2SO4:10H2O
  N2(g)            -6.48    -10.22   -3.73  N2
  O2(g)            -6.35     -9.82   -3.47  O2
  Pyrite         -212.17   -230.48  -18.31  FeS2
  Pyrochroite      -8.78      6.01   14.79  Mn(OH)2
  Pyrolusite        3.33     42.45   39.12  MnO2:H2O
  Quartz           -0.32     -4.06   -3.75  SiO2
  Rhodochrosite    -3.92    -14.48  -10.56  MnCO3
  Sepiolite        -1.18     14.77   15.95  Mg2Si3O7.5OH:3H2O
  Sepiolite(d)     -1.87     14.77   16.64  Mg2Si3O7.5OH:3H2O
  Siderite        -11.76    -22.07  -10.31  FeCO3
  SiO2(a)          -1.14     -4.06   -2.93  SiO2
  Sulfur          -93.69    -89.54    4.15  S
  Sylvite          -3.68     -2.63    1.05  KCl
  Talc              3.14     24.22   21.08  Mg3Si4O10(OH)2
  Thenardite       -4.51     -3.58    0.93  Na2SO4

**For a gas, SI = log10(fugacity). Fugacity = pressure * phi / 1 atm.
  For ideal gases, phi = 1.

Reaction step 9.

Using solution 1.	SEAWATER FROM NORDSTROM AND OTHERS (1979)
Using temperature 1.	
Using pressure 1.	

-----------------------------Solution composition------------------------------

	Elements           Molality       Moles

	Amm               1.724e-06   1.724e-06
	C                 2.233e-03   2.233e-03
	Ca                1.066e-02   1.066e-02
	Cl                5.657e-01   5.657e-01
	Fe                3.711e-08   3.711e-08
	K                 1.058e-02   1.058e-02
	Mg                5.507e-02   5.507e-02
	Mn                3.773e-09   3.773e-09
	N                 4.847e-06   4.847e-06
	Na                4.854e-01   4.854e-01
	S                 2.926e-02   2.926e-02
	Si                7.382e-05   7.382e-05

----------------------------Description of solution----------------------------

                                       pH  =   7.615      Charge balance
                                       pe  =  10.255      Adjusted to redox equilibrium
      Specific Conductance (µS/cm,  40°C)  = 71406
                          Density (g/cm³)  =   1.05685
                               Volume (L)  =   0.98060
                        Viscosity (mPa s)  =   0.72667
                        Activity of water  =   0.981
                 Ionic strength (mol/kgw)  =   6.701e-01
                       Mass of water (kg)  =   1.000e+00
                 Total alkalinity (eq/kg)  =   2.406e-03
                       Total CO2 (mol/kg)  =   2.233e-03
                         Temperature (°C)  =  40.00
                           Pressure (atm)  = 1000.00
                  Electrical balance (eq)  =   7.936e-04
 Percent error, 100*(Cat-|An|)/(Cat+|An|)  =   0.07
                               Iterations  =  16
                                  Total H  = 1.110148e+02
                                  Total O  = 5.563026e+01

----------------------------Distribution of species----------------------------

                                               Log       Log       Log    mole V
   Species          Molality    Activity  Molality  Activity     Gamma   cm³/mol

   OH-             4.081e-06   2.515e-06    -5.389    -5.599    -0.210     -1.97
   H+              3.197e-08   2.429e-08    -7.495    -7.615    -0.119      0.00
   H2O             5.551e+01   9.806e-01     1.744    -0.009     0.000     17.45
Amm           1.724e-06
   AmmH+           1.572e-06   8.958e-07    -5.804    -6.048    -0.244     20.02
   AmmHSO4-        1.126e-07   7.258e-08    -6.948    -7.139    -0.191     38.44
   Amm             3.917e-08   4.570e-08    -7.407    -7.340     0.067     25.93
C(-4)         0.000e+00
   CH4             0.000e+00   0.000e+00  -125.899  -125.832     0.067     37.19
C(4)          2.233e-03
   HCO3-           1.417e-03   9.778e-04    -2.849    -3.010    -0.161     31.37
   MgHCO3+         3.864e-04   2.457e-04    -3.413    -3.610    -0.197      8.39
   NaHCO3          2.276e-04   2.873e-04    -3.643    -3.542     0.101     24.05
   MgCO3           1.068e-04   1.246e-04    -3.972    -3.905     0.067    -11.70
   CaCO3           3.847e-05   4.489e-05    -4.415    -4.348     0.067     -9.51
   CO3-2           2.925e-05   6.319e-06    -4.534    -5.199    -0.666      6.63
   CO2             1.959e-05   2.169e-05    -4.708    -4.664     0.044     34.37
   KHCO3           7.363e-06   8.591e-06    -5.133    -5.066     0.067     20.98
   CaHCO3+         7.745e-09   5.407e-09    -8.111    -8.267    -0.156     12.01
   MnCO3           1.812e-10   2.115e-10    -9.742    -9.675     0.067     (0)  
   MnHCO3+         1.434e-10   9.603e-11    -9.844   -10.018    -0.174     (0)  
   (CO2)2          1.379e-11   1.527e-11   -10.860   -10.816     0.044     67.91
   FeHCO3+         3.766e-18   2.828e-18   -17.424   -17.549    -0.125     (0)  
   FeCO3           1.436e-18   1.676e-18   -17.843   -17.776     0.067     (0)  
Ca            1.066e-02
   Ca+2            9.399e-03   2.441e-03    -2.027    -2.612    -0.586    -11.46
   CaSO4           1.223e-03   1.310e-03    -2.913    -2.883     0.030      9.56
   CaCO3           3.847e-05   4.489e-05    -4.415    -4.348     0.067     -9.51
   CaOH+           2.750e-08   2.064e-08    -7.561    -7.685    -0.125     (0)  
   CaHCO3+         7.745e-09   5.407e-09    -8.111    -8.267    -0.156     12.01
   CaHSO4+         4.481e-10   3.364e-10    -9.349    -9.473    -0.125     (0)  
Cl            5.657e-01
   Cl-             5.657e-01   3.610e-01    -0.247    -0.443    -0.195     19.29
   HCl             1.338e-09   2.580e-09    -8.874    -8.588     0.285     20.95
   MnCl+           1.284e-09   8.598e-10    -8.892    -9.066    -0.174      4.22
   MnCl2           1.850e-11   2.158e-11   -10.733   -10.666     0.067     70.76
   MnCl3-          1.718e-11   1.150e-11   -10.765   -10.939    -0.174     46.85
   FeCl+           1.200e-17   9.009e-18   -16.921   -17.045    -0.125     (0)  
   FeCl+2          5.787e-18   1.165e-18   -17.238   -17.934    -0.696     (0)  
   FeCl2+          3.774e-18   2.528e-18   -17.423   -17.597    -0.174     (0)  
   FeCl3           1.655e-19   1.931e-19   -18.781   -18.714     0.067     (0)  
Fe(2)         8.390e-17
   Fe+2            6.291e-17   1.494e-17   -16.201   -16.826    -0.624    -14.38
   FeCl+           1.200e-17   9.009e-18   -16.921   -17.045    -0.125     (0)  
   FeHCO3+         3.766e-18   2.828e-18   -17.424   -17.549    -0.125     (0)  
   FeSO4           2.853e-18   3.329e-18   -17.545   -17.478     0.067     29.73
   FeCO3           1.436e-18   1.676e-18   -17.843   -17.776     0.067     (0)  
   FeOH+           9.326e-19   6.247e-19   -18.030   -18.204    -0.174     (0)  
   Fe(OH)2         1.255e-21   1.465e-21   -20.901   -20.834     0.067     (0)  
   Fe(OH)3-        7.436e-24   4.981e-24   -23.129   -23.303    -0.174     (0)  
   FeHSO4+         2.448e-24   1.838e-24   -23.611   -23.736    -0.125     (0)  
   Fe(HS)2         0.000e+00   0.000e+00  -253.083  -253.016     0.067     (0)  
   Fe(HS)3-        0.000e+00   0.000e+00  -373.303  -373.428    -0.125     (0)  
Fe(3)         3.711e-08
   Fe(OH)3         2.833e-08   3.306e-08    -7.548    -7.481     0.067     (0)  
   Fe(OH)4-        6.245e-09   4.258e-09    -8.204    -8.371    -0.166     (0)  
   Fe(OH)2+        2.539e-09   1.731e-09    -8.595    -8.762    -0.166     (0)  
   FeOH+2          1.899e-13   3.823e-14   -12.721   -13.418    -0.696     (0)  
   FeCl+2          5.787e-18   1.165e-18   -17.238   -17.934    -0.696     (0)  
   FeSO4+          3.865e-18   2.589e-18   -17.413   -17.587    -0.174     (0)  
   FeCl2+          3.774e-18   2.528e-18   -17.423   -17.597    -0.174     (0)  
   Fe(SO4)2-       4.277e-19   3.211e-19   -18.369   -18.493    -0.125     (0)  
   Fe+3            3.798e-19   3.211e-20   -18.420   -19.493    -1.073     (0)  
   FeCl3           1.655e-19   1.931e-19   -18.781   -18.714     0.067     (0)  
   Fe2(OH)2+4      2.141e-24   2.180e-26   -23.669   -25.661    -1.992     (0)  
   FeHSO4+2        5.463e-25   1.735e-25   -24.263   -24.761    -0.498     (0)  
   Fe3(OH)4+5      2.736e-30   2.111e-33   -29.563   -32.675    -3.113     (0)  
H(0)          1.024e-39
   H2              5.119e-40   6.019e-40   -39.291   -39.220     0.070     15.95
K             1.058e-02
   K+              1.032e-02   6.506e-03    -1.986    -2.187    -0.200     12.11
   KSO4-           2.545e-04   2.326e-04    -3.594    -3.633    -0.039     35.39
   KHCO3           7.363e-06   8.591e-06    -5.133    -5.066     0.067     20.98
Mg            5.507e-02
   Mg+2            4.855e-02   1.452e-02    -1.314    -1.838    -0.524    -15.17
   MgSO4           5.916e-03   8.055e-03    -2.228    -2.094     0.134     18.56
   MgHCO3+         3.864e-04   2.457e-04    -3.413    -3.610    -0.197      8.39
   MgCO3           1.068e-04   1.246e-04    -3.972    -3.905     0.067    -11.70
   Mg(SO4)2-2      9.992e-05   2.918e-05    -4.000    -4.535    -0.535     52.60
   MgOH+           1.188e-05   8.441e-06    -4.925    -5.074    -0.148     (0)  
Mn(2)         3.773e-09
   Mn+2            2.083e-09   4.948e-10    -8.681    -9.306    -0.624    -10.77
   MnCl+           1.284e-09   8.598e-10    -8.892    -9.066    -0.174      4.22
   MnCO3           1.812e-10   2.115e-10    -9.742    -9.675     0.067     (0)  
   MnHCO3+         1.434e-10   9.603e-11    -9.844   -10.018    -0.174     (0)  
   MnSO4           4.228e-11   3.634e-11   -10.374   -10.440    -0.066     16.01
   MnCl2           1.850e-11   2.158e-11   -10.733   -10.666     0.067     70.76
   MnCl3-          1.718e-11   1.150e-11   -10.765   -10.939    -0.174     46.85
   MnOH+           3.183e-12   2.132e-12   -11.497   -11.671    -0.174     (0)  
   Mn(NO3)2        2.082e-20   2.429e-20   -19.682   -19.615     0.067     38.24
   Mn(OH)3-        3.877e-21   2.597e-21   -20.411   -20.586    -0.174     (0)  
Mn(3)         1.724e-23
   Mn+3            1.724e-23   1.458e-24   -22.763   -23.836    -1.073     (0)  
N(0)          1.414e-10
   N2              7.068e-11   8.247e-11   -10.151   -10.084     0.067     29.29
N(3)          5.808e-15
   NO2-            5.808e-15   3.452e-15   -14.236   -14.462    -0.226     25.84
N(5)          4.847e-06
   NO3-            4.847e-06   2.881e-06    -5.314    -5.540    -0.226     30.01
   Mn(NO3)2        2.082e-20   2.429e-20   -19.682   -19.615     0.067     38.24
Na            4.854e-01
   Na+             4.747e-01   3.441e-01    -0.324    -0.463    -0.140      2.29
   NaSO4-          1.051e-02   7.644e-03    -1.978    -2.117    -0.138     25.91
   NaHCO3          2.276e-04   2.873e-04    -3.643    -3.542     0.101     24.05
   Na2SO4          2.424e-06   2.779e-06    -5.615    -5.556     0.059     44.56
O(0)          3.534e-10
   O2              1.767e-10   2.062e-10    -9.753    -9.686     0.067     29.91
S(-2)         0.000e+00
   HS-             0.000e+00   0.000e+00  -122.609  -122.819    -0.210     21.92
   H2S             0.000e+00   0.000e+00  -123.865  -123.798     0.067     30.06
   S-2             0.000e+00   0.000e+00  -126.631  -127.327    -0.696     (0)  
   (H2S)2          0.000e+00   0.000e+00  -248.850  -248.783     0.067     63.35
   Fe(HS)2         0.000e+00   0.000e+00  -253.083  -253.016     0.067     (0)  
   Fe(HS)3-        0.000e+00   0.000e+00  -373.303  -373.428    -0.125     (0)  
S(6)          2.926e-02
   SO4-2           1.115e-02   2.110e-03    -1.953    -2.676    -0.723     23.99
   NaSO4-          1.051e-02   7.644e-03    -1.978    -2.117    -0.138     25.91
   MgSO4           5.916e-03   8.055e-03    -2.228    -2.094     0.134     18.56
   CaSO4           1.223e-03   1.310e-03    -2.913    -2.883     0.030      9.56
   KSO4-           2.545e-04   2.326e-04    -3.594    -3.633    -0.039     35.39
   Mg(SO4)2-2      9.992e-05   2.918e-05    -4.000    -4.535    -0.535     52.60
   Na2SO4          2.424e-06   2.779e-06    -5.615    -5.556     0.059     44.56
   AmmHSO4-        1.126e-07   7.258e-08    -6.948    -7.139    -0.191     38.44
   HSO4-           5.073e-09   3.809e-09    -8.295    -8.419    -0.125     39.80
   CaHSO4+         4.481e-10   3.364e-10    -9.349    -9.473    -0.125     (0)  
   MnSO4           4.228e-11   3.634e-11   -10.374   -10.440    -0.066     16.01
   FeSO4+          3.865e-18   2.589e-18   -17.413   -17.587    -0.174     (0)  
   FeSO4           2.853e-18   3.329e-18   -17.545   -17.478     0.067     29.73
   Fe(SO4)2-       4.277e-19   3.211e-19   -18.369   -18.493    -0.125     (0)  
   FeHSO4+         2.448e-24   1.838e-24   -23.611   -23.736    -0.125     (0)  
   FeHSO4+2        5.463e-25   1.735e-25   -24.263   -24.761    -0.498     (0)  
Si            7.382e-05
   H4SiO4          7.094e-05   8.278e-05    -4.149    -4.082     0.067     51.77
   H3SiO4-         2.880e-06   1.831e-06    -5.541    -5.737    -0.197     30.71
   H2SiO4-2        1.914e-10   4.135e-11    -9.718   -10.384    -0.666     (0)  

------------------------------Saturation indices-------------------------------

  Phase               SI** log IAP   log K(313 K, 1000 atm)

  Amm(g)           -8.40     -7.34    1.06  Amm
  Anhydrite        -1.30     -5.29   -3.99  CaSO4
  Aragonite        -0.02     -7.81   -7.79  CaCO3
  Arcanite         -5.63     -7.05   -1.42  K2SO4
  Calcite           0.06     -7.81   -7.88  CaCO3
  CH4(g)         -122.29   -125.83   -3.54  CH4
  Chalcedony       -0.78     -4.07   -3.28  SiO2
  Chrysotile        1.05     32.00   30.95  Mg3Si2O5(OH)4
  CO2(g)           -2.46     -4.66   -2.21  CO2
  Dolomite          1.23    -14.85  -16.08  CaMg(CO3)2
  Epsomite         -3.20     -4.57   -1.37  MgSO4:7H2O
  Fe(OH)3(a)       -0.68      3.32    4.01  Fe(OH)3
  FeS(ppt)       -127.99   -132.03   -4.04  FeS
  Goethite          5.08      3.33   -1.75  FeOOH
  Gypsum           -1.12     -5.31   -4.18  CaSO4:2H2O
  H2(g)           -35.83    -39.22   -3.39  H2
  H2O(g)           -0.85     -0.01    0.84  H2O
  H2S(g)         -122.15   -130.43   -8.29  H2S
  Halite           -2.58     -0.91    1.67  NaCl
  Hausmannite      -3.39     53.48   56.86  Mn3O4
  Hematite         12.14      6.67   -5.46  Fe2O3
  Hexahydrite      -3.33     -4.56   -1.23  MgSO4:6H2O
  Jarosite-K       -7.29    -20.38  -13.09  KFe3(SO4)2(OH)6
  Kieserite        -3.84     -4.52   -0.68  MgSO4:H2O
  Mackinawite    -127.60   -132.03   -4.43  FeS
  Manganite        -1.16     23.78   24.93  MnOOH
  Melanterite     -15.29    -19.56   -4.27  FeSO4:7H2O
  Mirabilite       -4.33     -3.69    0.64  Na2SO4:10H2O
  N2(g)            -6.34    -10.08   -3.75  N2
  O2(g)            -6.20     -9.69   -3.49  O2
  Pyrite         -208.54   -226.72  -18.18  FeS2
  Pyrochroite      -8.89      5.91   14.79  Mn(OH)2
  Pyrolusite        3.25     41.64   38.39  MnO2:H2O
  Quartz           -0.39     -4.07   -3.67  SiO2
  Rhodochrosite    -3.92    -14.50  -10.59  MnCO3
  Sepiolite        -1.31     14.54   15.85  Mg2Si3O7.5OH:3H2O
  Sepiolite(d)     -2.16     14.54   16.70  Mg2Si3O7.5OH:3H2O
  Siderite        -11.67    -22.02  -10.35  FeCO3
  SiO2(a)          -1.19     -4.07   -2.88  SiO2
  Sulfur          -92.10    -88.06    4.04  S
  Sylvite          -3.70     -2.63    1.07  KCl
  Talc              3.29     23.88   20.59  Mg3Si4O10(OH)2
  Thenardite       -4.45     -3.60    0.85  Na2SO4

**For a gas, SI = log10(fugacity). Fugacity = pressure * phi / 1 atm.
  For ideal gases, phi = 1.

------------------
End of simulation.
------------------

------------------------------------
Reading input data for simulation 3.
------------------------------------

