WARNING: Database file from DATABASE keyword is used; command line argument ignored.
   Input file: seaw_0_200C
  Output file: seaw_0_200C.out
Database file: ../database/phreeqc.dat

------------------
Reading data base.
------------------

	SOLUTION_MASTER_SPECIES
	SOLUTION_SPECIES
	PHASES
	GAS_BINARY_PARAMETERS
	EXCHANGE_MASTER_SPECIES
	EXCHANGE_SPECIES
	SURFACE_MASTER_SPECIES
	SURFACE_SPECIES
	MEAN_GAMMAS
	RATES
	END
------------------------------------
Reading input data for simulation 1.
------------------------------------

	DATABASE ../database/phreeqc.dat
	SELECTED_OUTPUT 101
	    file                seaw_0_200C_101.sel
	USER_PUNCH 101
	    headings Mu SC Viscosity
	    start
	10 PUNCH STR_F$(MU, 20, 12)
	20 PUNCH STR_F$(SC, 20, 10)
	30 PUNCH STR_F$(VISCOS, 20, 10)
	    end
	SOLUTION 1
	 pH 8.22
	 Na 485
	 K 10.6
	         Mg 55.1
	  Ca 10.7
	 Cl 566
	 Alkalinity 2.4
	 S(6) 29.3
	REACTION_TEMPERATURE 1
	0 200 in 11
	USER_GRAPH 1
	-chart_title "Density and viscosity of seawater"
	-axis_titles "temperature / °C" "density / (kg/L)" "viscosity / (mPa s)"
	-headings rho viscosity
	-axis_scale x_axis 0 200
	-connect_simulations false
	10 plot_xy tc, rho
	20 plot_xy tc, viscos, y_axis = 2 
	END
-------------------------------------------
Beginning of initial solution calculations.
-------------------------------------------

Initial solution 1.	

-----------------------------Solution composition------------------------------

	Elements           Molality       Moles

	Alkalinity        2.400e-03   2.400e-03
	Ca                1.070e-02   1.070e-02
	Cl                5.660e-01   5.660e-01
	K                 1.060e-02   1.060e-02
	Mg                5.510e-02   5.510e-02
	Na                4.850e-01   4.850e-01
	S(6)              2.930e-02   2.930e-02

----------------------------Description of solution----------------------------

                                       pH  =   8.220    
                                       pe  =   4.000    
      Specific Conductance (ÂµS/cm,  25Â°C)  = 52927
                          Density (g/cmÂł)  =   1.02326
                               Volume (L)  =   1.01279
                        Viscosity (mPa s)  =   0.95670
                        Activity of water  =   0.981
                 Ionic strength (mol/kgw)  =   6.738e-01
                       Mass of water (kg)  =   1.000e+00
                    Total carbon (mol/kg)  =   2.230e-03
                       Total CO2 (mol/kg)  =   2.230e-03
                         Temperature (Â°C)  =  25.00
                  Electrical balance (eq)  =   2.000e-04
 Percent error, 100*(Cat-|An|)/(Cat+|An|)  =   0.02
                               Iterations  =   8
                                  Total H  = 1.110145e+02
                                  Total O  = 5.563011e+01

----------------------------Distribution of species----------------------------

                                               Log       Log       Log    mole V
   Species          Molality    Activity  Molality  Activity     Gamma   cmÂł/mol

   OH-             2.705e-06   1.647e-06    -5.568    -5.783    -0.215     -2.63
   H+              7.983e-09   6.026e-09    -8.098    -8.220    -0.122      0.00
   H2O             5.551e+01   9.806e-01     1.744    -0.009     0.000     18.07
C(4)          2.230e-03
   HCO3-           1.610e-03   1.101e-03    -2.793    -2.958    -0.165     28.01
   MgHCO3+         2.863e-04   1.800e-04    -3.543    -3.745    -0.201      5.82
   NaHCO3          1.469e-04   1.856e-04    -3.833    -3.731     0.102     17.66
   MgCO3           9.785e-05   1.143e-04    -4.009    -3.942     0.067    -17.09
   CO3-2           4.118e-05   8.568e-06    -4.385    -5.067    -0.682     -0.67
   CaCO3           3.063e-05   3.577e-05    -4.514    -4.446     0.067    -14.60
   CO2             1.373e-05   1.521e-05    -4.862    -4.818     0.044     34.79
   KHCO3           2.717e-06   3.173e-06    -5.566    -5.499     0.067     21.42
   CaHCO3+         3.466e-10   2.399e-10    -9.460    -9.620    -0.160      9.96
   (CO2)2          3.394e-12   3.760e-12   -11.469   -11.425     0.044     68.75
Ca            1.070e-02
   Ca+2            9.939e-03   2.485e-03    -2.003    -2.605    -0.602    -16.70
   CaSO4           7.307e-04   7.830e-04    -3.136    -3.106     0.030      7.22
   CaCO3           3.063e-05   3.577e-05    -4.514    -4.446     0.067    -14.60
   CaOH+           8.988e-08   6.712e-08    -7.046    -7.173    -0.127     (0)  
   CaHCO3+         3.466e-10   2.399e-10    -9.460    -9.620    -0.160      9.96
   CaHSO4+         5.294e-11   3.954e-11   -10.276   -10.403    -0.127     (0)  
Cl            5.660e-01
   Cl-             5.660e-01   3.570e-01    -0.247    -0.447    -0.200     18.79
   HCl             3.829e-10   7.411e-10    -9.417    -9.130     0.287     20.36
H(0)          4.368e-28
   H2              2.184e-28   2.570e-28   -27.661   -27.590     0.071     14.99
K             1.060e-02
   K+              1.035e-02   6.453e-03    -1.985    -2.190    -0.205      9.66
   KSO4-           2.445e-04   2.218e-04    -3.612    -3.654    -0.042     35.14
   KHCO3           2.717e-06   3.173e-06    -5.566    -5.499     0.067     21.42
Mg            5.510e-02
   Mg+2            4.843e-02   1.398e-02    -1.315    -1.855    -0.540    -20.41
   MgSO4           6.061e-03   8.266e-03    -2.217    -2.083     0.135     -0.40
   MgHCO3+         2.863e-04   1.800e-04    -3.543    -3.745    -0.201      5.82
   Mg(SO4)2-2      2.173e-04   6.150e-05    -3.663    -4.211    -0.548     48.71
   MgCO3           9.785e-05   1.143e-04    -4.009    -3.942     0.067    -17.09
   MgOH+           1.172e-05   8.259e-06    -4.931    -5.083    -0.152     (0)  
Na            4.850e-01
   Na+             4.754e-01   3.412e-01    -0.323    -0.467    -0.144     -0.50
   NaSO4-          9.413e-03   6.770e-03    -2.026    -2.169    -0.143     21.71
   NaHCO3          1.469e-04   1.856e-04    -3.833    -3.731     0.102     17.66
   Na2SO4          9.818e-07   1.126e-06    -6.008    -5.948     0.060     47.96
O(0)          1.082e-37
   O2              5.408e-38   6.316e-38   -37.267   -37.200     0.067     30.40
S(6)          2.930e-02
   SO4-2           1.241e-02   2.259e-03    -1.906    -2.646    -0.740     17.12
   NaSO4-          9.413e-03   6.770e-03    -2.026    -2.169    -0.143     21.71
   MgSO4           6.061e-03   8.266e-03    -2.217    -2.083     0.135     -0.40
   CaSO4           7.307e-04   7.830e-04    -3.136    -3.106     0.030      7.22
   KSO4-           2.445e-04   2.218e-04    -3.612    -3.654    -0.042     35.14
   Mg(SO4)2-2      2.173e-04   6.150e-05    -3.663    -4.211    -0.548     48.71
   Na2SO4          9.818e-07   1.126e-06    -6.008    -5.948     0.060     47.96
   HSO4-           1.772e-09   1.323e-09    -8.752    -8.878    -0.127     40.96
   CaHSO4+         5.294e-11   3.954e-11   -10.276   -10.403    -0.127     (0)  

------------------------------Saturation indices-------------------------------

  Phase               SI** log IAP   log K(298 K,   1 atm)

  Anhydrite        -0.94     -5.25   -4.31  CaSO4
  Aragonite         0.66     -7.67   -8.34  CaCO3
  Arcanite         -5.15     -7.03   -1.88  K2SO4
  Calcite           0.78     -7.67   -8.45  CaCO3
  CO2(g)           -3.35     -4.82   -1.47  CO2
  Dolomite          2.49    -14.59  -17.08  CaMg(CO3)2
  Epsomite         -2.82     -4.56   -1.74  MgSO4:7H2O
  Gypsum           -0.72     -5.27   -4.55  CaSO4:2H2O
  H2(g)           -24.49    -27.59   -3.10  H2
  H2O(g)           -1.51     -0.01    1.50  H2O
  Halite           -2.48     -0.91    1.57  NaCl
  Hexahydrite      -2.99     -4.55   -1.57  MgSO4:6H2O
  Kieserite        -3.35     -4.51   -1.16  MgSO4:H2O
  Mirabilite       -2.96     -3.67   -0.71  Na2SO4:10H2O
  O2(g)           -34.31    -37.20   -2.89  O2
  Sylvite          -3.54     -2.64    0.90  KCl
  Thenardite       -4.23     -3.58    0.65  Na2SO4

**For a gas, SI = log10(fugacity). Fugacity = pressure * phi / 1 atm.
  For ideal gases, phi = 1.

-----------------------------------------
Beginning of batch-reaction calculations.
-----------------------------------------

Reaction step 1.

Using solution 1.	
Using temperature 1.	

-----------------------------Solution composition------------------------------

	Elements           Molality       Moles

	C                 2.230e-03   2.230e-03
	Ca                1.070e-02   1.070e-02
	Cl                5.660e-01   5.660e-01
	K                 1.060e-02   1.060e-02
	Mg                5.510e-02   5.510e-02
	Na                4.850e-01   4.850e-01
	S                 2.930e-02   2.930e-02

----------------------------Description of solution----------------------------

                                       pH  =   8.616      Charge balance
                                       pe  =  11.567      Adjusted to redox equilibrium
      Specific Conductance (ÂµS/cm,   0Â°C)  = 28646
                          Density (g/cmÂł)  =   1.02804
                               Volume (L)  =   1.00808
                        Viscosity (mPa s)  =   1.88588
                        Activity of water  =   0.981
                 Ionic strength (mol/kgw)  =   6.828e-01
                       Mass of water (kg)  =   1.000e+00
                 Total alkalinity (eq/kg)  =   2.400e-03
                       Total CO2 (mol/kg)  =   2.230e-03
                         Temperature (Â°C)  =   0.00
                  Electrical balance (eq)  =   2.000e-04
 Percent error, 100*(Cat-|An|)/(Cat+|An|)  =   0.02
                               Iterations  =  14
                                  Total H  = 1.110145e+02
                                  Total O  = 5.563011e+01

----------------------------Distribution of species----------------------------

                                               Log       Log       Log    mole V
   Species          Molality    Activity  Molality  Activity     Gamma   cmÂł/mol

   OH-             7.547e-07   4.662e-07    -6.122    -6.331    -0.209     -4.83
   H+              3.186e-09   2.423e-09    -8.497    -8.616    -0.119      0.00
   H2O             5.551e+01   9.806e-01     1.744    -0.009     0.000     18.02
C(-4)         0.000e+00
   CH4             0.000e+00   0.000e+00  -138.533  -138.465     0.068     32.63
C(4)          2.230e-03
   HCO3-           1.624e-03   1.123e-03    -2.789    -2.950    -0.160     24.56
   MgHCO3+         3.010e-04   1.919e-04    -3.521    -3.717    -0.196      4.52
   NaHCO3          1.165e-04   1.478e-04    -3.934    -3.830     0.103     14.64
   MgCO3           9.188e-05   1.075e-04    -4.037    -3.968     0.068    -17.05
   CO3-2           5.012e-05   1.090e-05    -4.300    -4.963    -0.663     -5.20
   CaCO3           3.426e-05   4.009e-05    -4.465    -4.397     0.068    -14.71
   CO2             9.481e-06   1.052e-05    -5.023    -4.978     0.045     33.49
   KHCO3           1.794e-06   2.099e-06    -5.746    -5.678     0.068     18.60
   CaHCO3+         7.717e-13   5.395e-13   -12.113   -12.268    -0.155      8.36
   (CO2)2          3.331e-13   3.695e-13   -12.477   -12.432     0.045     66.14
Ca            1.070e-02
   Ca+2            1.025e-02   2.693e-03    -1.989    -2.570    -0.580    -17.88
   CaSO4           4.192e-04   4.496e-04    -3.378    -3.347     0.030      3.19
   CaCO3           3.426e-05   4.009e-05    -4.465    -4.397     0.068    -14.71
   CaOH+           2.393e-07   1.809e-07    -6.621    -6.743    -0.122     (0)  
   CaHSO4+         1.757e-11   1.328e-11   -10.755   -10.877    -0.122     (0)  
   CaHCO3+         7.717e-13   5.395e-13   -12.113   -12.268    -0.155      8.36
Cl            5.660e-01
   Cl-             5.660e-01   3.622e-01    -0.247    -0.441    -0.194     17.11
   HCl             1.809e-10   3.531e-10    -9.743    -9.452     0.291     17.71
H(0)          0.000e+00
   H2              0.000e+00   0.000e+00   -43.469   -43.398     0.072     12.27
K             1.060e-02
   K+              1.030e-02   6.517e-03    -1.987    -2.186    -0.199      8.49
   KSO4-           2.941e-04   2.707e-04    -3.532    -3.567    -0.036     35.75
   KHCO3           1.794e-06   2.099e-06    -5.746    -5.678     0.068     18.60
Mg            5.510e-02
   Mg+2            5.013e-02   1.518e-02    -1.300    -1.819    -0.519    -19.67
   MgSO4           4.270e-03   5.847e-03    -2.370    -2.233     0.137     -3.69
   Mg(SO4)2-2      3.089e-04   9.082e-05    -3.510    -4.042    -0.532     36.03
   MgHCO3+         3.010e-04   1.919e-04    -3.521    -3.717    -0.196      4.52
   MgCO3           9.188e-05   1.075e-04    -4.037    -3.968     0.068    -17.05
   MgOH+           2.666e-06   1.897e-06    -5.574    -5.722    -0.148     (0)  
Na            4.850e-01
   Na+             4.760e-01   3.467e-01    -0.322    -0.460    -0.138     -2.24
   NaSO4-          8.882e-03   6.494e-03    -2.051    -2.187    -0.136     19.21
   NaHCO3          1.165e-04   1.478e-04    -3.934    -3.830     0.103     14.64
   Na2SO4          5.932e-08   6.818e-08    -7.227    -7.166     0.060     66.96
O(0)          3.462e-15
   O2              1.731e-15   2.026e-15   -14.762   -14.693     0.068     27.49
S(-2)         0.000e+00
   HS-             0.000e+00   0.000e+00  -134.700  -134.909    -0.209     19.01
   H2S             0.000e+00   0.000e+00  -136.241  -136.173     0.068     26.92
   S-2             0.000e+00   0.000e+00  -139.330  -140.023    -0.693     (0)  
   (H2S)2          0.000e+00   0.000e+00  -274.021  -273.953     0.068     30.91
S(6)          2.930e-02
   SO4-2           1.482e-02   2.822e-03    -1.829    -2.550    -0.720     11.09
   NaSO4-          8.882e-03   6.494e-03    -2.051    -2.187    -0.136     19.21
   MgSO4           4.270e-03   5.847e-03    -2.370    -2.233     0.137     -3.69
   CaSO4           4.192e-04   4.496e-04    -3.378    -3.347     0.030      3.19
   Mg(SO4)2-2      3.089e-04   9.082e-05    -3.510    -4.042    -0.532     36.03
   KSO4-           2.941e-04   2.707e-04    -3.532    -3.567    -0.036     35.75
   Na2SO4          5.932e-08   6.818e-08    -7.227    -7.166     0.060     66.96
   HSO4-           5.427e-10   4.102e-10    -9.265    -9.387    -0.122     37.95
   CaHSO4+         1.757e-11   1.328e-11   -10.755   -10.877    -0.122     (0)  

------------------------------Saturation indices-------------------------------

  Phase               SI** log IAP   log K(273 K,   1 atm)

  Anhydrite        -1.18     -5.12   -3.94  CaSO4
  Aragonite         0.69     -7.53   -8.22  CaCO3
  Arcanite         -4.62     -6.92   -2.31  K2SO4
  Calcite           0.77     -7.53   -8.30  CaCO3
  CH4(g)         -135.99   -138.46   -2.47  CH4
  CO2(g)           -3.87     -4.98   -1.11  CO2
  Dolomite          2.50    -14.31  -16.82  CaMg(CO3)2
  Epsomite         -2.53     -4.43   -1.89  MgSO4:7H2O
  Gypsum           -0.62     -5.14   -4.52  CaSO4:2H2O
  H2(g)           -40.37    -43.40   -3.03  H2
  H2O(g)           -2.22     -0.01    2.21  H2O
  H2S(g)         -135.51   -143.52   -8.01  H2S
  Halite           -2.45     -0.90    1.55  NaCl
  Hexahydrite      -2.82     -4.42   -1.60  MgSO4:6H2O
  Kieserite        -2.87     -4.38   -1.50  MgSO4:H2O
  Mirabilite       -1.14     -3.55   -2.41  Na2SO4:10H2O
  O2(g)           -12.03    -14.69   -2.66  O2
  Sulfur         -101.33    -95.81    5.52  S
  Sylvite          -3.39     -2.63    0.76  KCl
  Thenardite       -4.43     -3.47    0.96  Na2SO4

**For a gas, SI = log10(fugacity). Fugacity = pressure * phi / 1 atm.
  For ideal gases, phi = 1.

Reaction step 2.

Using solution 1.	
Using temperature 1.	

-----------------------------Solution composition------------------------------

	Elements           Molality       Moles

	C                 2.230e-03   2.230e-03
	Ca                1.070e-02   1.070e-02
	Cl                5.660e-01   5.660e-01
	K                 1.060e-02   1.060e-02
	Mg                5.510e-02   5.510e-02
	Na                4.850e-01   4.850e-01
	S                 2.930e-02   2.930e-02

----------------------------Description of solution----------------------------

                                       pH  =   8.291      Charge balance
                                       pe  =   9.902      Adjusted to redox equilibrium
      Specific Conductance (ÂµS/cm,  20Â°C)  = 47780
                          Density (g/cmÂł)  =   1.02467
                               Volume (L)  =   1.01140
                        Viscosity (mPa s)  =   1.07444
                        Activity of water  =   0.981
                 Ionic strength (mol/kgw)  =   6.756e-01
                       Mass of water (kg)  =   1.000e+00
                 Total alkalinity (eq/kg)  =   2.400e-03
                       Total CO2 (mol/kg)  =   2.230e-03
                         Temperature (Â°C)  =  20.00
                  Electrical balance (eq)  =   2.000e-04
 Percent error, 100*(Cat-|An|)/(Cat+|An|)  =   0.02
                               Iterations  =  12
                                  Total H  = 1.110145e+02
                                  Total O  = 5.563011e+01

----------------------------Distribution of species----------------------------

                                               Log       Log       Log    mole V
   Species          Molality    Activity  Molality  Activity     Gamma   cmÂł/mol

   OH-             2.149e-06   1.313e-06    -5.668    -5.882    -0.214     -2.88
   H+              6.763e-09   5.114e-09    -8.170    -8.291    -0.121      0.00
   H2O             5.551e+01   9.806e-01     1.744    -0.009     0.000     18.05
C(-4)         0.000e+00
   CH4             0.000e+00   0.000e+00  -125.375  -125.308     0.068     35.01
C(4)          2.230e-03
   HCO3-           1.616e-03   1.107e-03    -2.792    -2.956    -0.164     27.54
   MgHCO3+         2.867e-04   1.808e-04    -3.543    -3.743    -0.200      5.65
   NaHCO3          1.402e-04   1.773e-04    -3.853    -3.751     0.102     17.24
   MgCO3           9.818e-05   1.147e-04    -4.008    -3.940     0.068    -17.08
   CO3-2           4.339e-05   9.120e-06    -4.363    -5.040    -0.677     -1.18
   CaCO3           3.030e-05   3.540e-05    -4.519    -4.451     0.068    -14.62
   CO2             1.255e-05   1.391e-05    -4.901    -4.857     0.045     34.56
   KHCO3           2.522e-06   2.947e-06    -5.598    -5.531     0.068     21.03
   CaHCO3+         1.178e-10   8.171e-11    -9.929   -10.088    -0.159      9.74
   (CO2)2          2.179e-12   2.415e-12   -11.662   -11.617     0.045     68.28
Ca            1.070e-02
   Ca+2            1.001e-02   2.531e-03    -2.000    -2.597    -0.597    -16.83
   CaSO4           6.611e-04   7.085e-04    -3.180    -3.150     0.030      6.66
   CaCO3           3.030e-05   3.540e-05    -4.519    -4.451     0.068    -14.62
   CaOH+           1.076e-07   8.054e-08    -6.968    -7.094    -0.126     (0)  
   CaHCO3+         1.178e-10   8.171e-11    -9.929   -10.088    -0.159      9.74
   CaHSO4+         4.303e-11   3.222e-11   -10.366   -10.492    -0.126     (0)  
Cl            5.660e-01
   Cl-             5.660e-01   3.582e-01    -0.247    -0.446    -0.199     18.60
   HCl             3.357e-10   6.509e-10    -9.474    -9.187     0.288     19.99
H(0)          5.199e-40
   H2              2.600e-40   3.061e-40   -39.585   -39.514     0.071     14.60
K             1.060e-02
   K+              1.035e-02   6.470e-03    -1.985    -2.189    -0.204      9.50
   KSO4-           2.519e-04   2.292e-04    -3.599    -3.640    -0.041     35.29
   KHCO3           2.522e-06   2.947e-06    -5.598    -5.531     0.068     21.03
Mg            5.510e-02
   Mg+2            4.879e-02   1.423e-02    -1.312    -1.847    -0.535    -20.28
   MgSO4           5.688e-03   7.764e-03    -2.245    -2.110     0.135     -0.86
   MgHCO3+         2.867e-04   1.808e-04    -3.543    -3.743    -0.200      5.65
   Mg(SO4)2-2      2.333e-04   6.658e-05    -3.632    -4.177    -0.545     46.51
   MgCO3           9.818e-05   1.147e-04    -4.008    -3.940     0.068    -17.08
   MgOH+           8.866e-06   6.261e-06    -5.052    -5.203    -0.151     (0)  
Na            4.850e-01
   Na+             4.755e-01   3.424e-01    -0.323    -0.465    -0.143     -0.74
   NaSO4-          9.340e-03   6.742e-03    -2.030    -2.171    -0.142     21.41
   NaHCO3          1.402e-04   1.773e-04    -3.853    -3.751     0.102     17.24
   Na2SO4          5.890e-07   6.760e-07    -6.230    -6.170     0.060     50.60
O(0)          1.559e-15
   O2              7.795e-16   9.108e-16   -15.108   -15.041     0.068     29.98
S(-2)         0.000e+00
   HS-             0.000e+00   0.000e+00  -121.811  -122.025    -0.214     21.06
   H2S             0.000e+00   0.000e+00  -123.374  -123.307     0.068     34.96
   S-2             0.000e+00   0.000e+00  -126.095  -126.803    -0.709     (0)  
   (H2S)2          0.000e+00   0.000e+00  -248.015  -247.948     0.068     30.29
S(6)          2.930e-02
   SO4-2           1.289e-02   2.370e-03    -1.890    -2.625    -0.736     16.42
   NaSO4-          9.340e-03   6.742e-03    -2.030    -2.171    -0.142     21.41
   MgSO4           5.688e-03   7.764e-03    -2.245    -2.110     0.135     -0.86
   CaSO4           6.611e-04   7.085e-04    -3.180    -3.150     0.030      6.66
   KSO4-           2.519e-04   2.292e-04    -3.599    -3.640    -0.041     35.29
   Mg(SO4)2-2      2.333e-04   6.658e-05    -3.632    -4.177    -0.545     46.51
   Na2SO4          5.890e-07   6.760e-07    -6.230    -6.170     0.060     50.60
   HSO4-           1.414e-09   1.059e-09    -8.849    -8.975    -0.126     40.57
   CaHSO4+         4.303e-11   3.222e-11   -10.366   -10.492    -0.126     (0)  

------------------------------Saturation indices-------------------------------

  Phase               SI** log IAP   log K(293 K,   1 atm)

  Anhydrite        -0.99     -5.22   -4.24  CaSO4
  Aragonite         0.67     -7.64   -8.31  CaCO3
  Arcanite         -5.06     -7.00   -1.95  K2SO4
  Calcite           0.77     -7.64   -8.41  CaCO3
  CH4(g)         -122.55   -125.31   -2.75  CH4
  CO2(g)           -3.45     -4.86   -1.41  CO2
  Dolomite          2.48    -14.52  -17.00  CaMg(CO3)2
  Epsomite         -2.76     -4.53   -1.77  MgSO4:7H2O
  Gypsum           -0.71     -5.24   -4.53  CaSO4:2H2O
  H2(g)           -36.43    -39.51   -3.09  H2
  H2O(g)           -1.64     -0.01    1.63  H2O
  H2S(g)         -122.37   -130.32   -7.95  H2S
  Halite           -2.48     -0.91    1.57  NaCl
  Hexahydrite      -2.95     -4.52   -1.57  MgSO4:6H2O
  Kieserite        -3.28     -4.48   -1.20  MgSO4:H2O
  Mirabilite       -2.58     -3.64   -1.07  Na2SO4:10H2O
  O2(g)           -12.19    -15.04   -2.85  O2
  Sulfur          -91.92    -86.92    5.00  S
  Sylvite          -3.51     -2.63    0.87  KCl
  Thenardite       -4.27     -3.56    0.72  Na2SO4

**For a gas, SI = log10(fugacity). Fugacity = pressure * phi / 1 atm.
  For ideal gases, phi = 1.

Reaction step 3.

Using solution 1.	
Using temperature 1.	

-----------------------------Solution composition------------------------------

	Elements           Molality       Moles

	C                 2.230e-03   2.230e-03
	Ca                1.070e-02   1.070e-02
	Cl                5.660e-01   5.660e-01
	K                 1.060e-02   1.060e-02
	Mg                5.510e-02   5.510e-02
	Na                4.850e-01   4.850e-01
	S                 2.930e-02   2.930e-02

----------------------------Description of solution----------------------------

                                       pH  =   8.021      Charge balance
                                       pe  =   8.369      Adjusted to redox equilibrium
      Specific Conductance (ÂµS/cm,  40Â°C)  = 68832
                          Density (g/cmÂł)  =   1.01790
                               Volume (L)  =   1.01812
                        Viscosity (mPa s)  =   0.70532
                        Activity of water  =   0.981
                 Ionic strength (mol/kgw)  =   6.682e-01
                       Mass of water (kg)  =   1.000e+00
                 Total alkalinity (eq/kg)  =   2.400e-03
                       Total CO2 (mol/kg)  =   2.230e-03
                         Temperature (Â°C)  =  40.00
                  Electrical balance (eq)  =   2.000e-04
 Percent error, 100*(Cat-|An|)/(Cat+|An|)  =   0.02
                               Iterations  =  10
                                  Total H  = 1.110145e+02
                                  Total O  = 5.563011e+01

----------------------------Distribution of species----------------------------

                                               Log       Log       Log    mole V
   Species          Molality    Activity  Molality  Activity     Gamma   cmÂł/mol

   OH-             4.997e-06   3.011e-06    -5.301    -5.521    -0.220     -2.21
   H+              1.271e-08   9.536e-09    -7.896    -8.021    -0.125      0.00
   H2O             5.551e+01   9.806e-01     1.744    -0.008     0.000     18.16
C(-4)         0.000e+00
   CH4             0.000e+00   0.000e+00  -113.443  -113.376     0.067     36.62
C(4)          2.230e-03
   HCO3-           1.588e-03   1.077e-03    -2.799    -2.968    -0.169     29.05
   MgHCO3+         2.912e-04   1.813e-04    -3.536    -3.742    -0.206      6.16
   NaHCO3          1.692e-04   2.135e-04    -3.772    -3.671     0.101     18.61
   MgCO3           9.198e-05   1.073e-04    -4.036    -3.969     0.067    -17.10
   CO3-2           3.368e-05   6.777e-06    -4.473    -5.169    -0.696      0.15
   CaCO3           3.295e-05   3.844e-05    -4.482    -4.415     0.067    -14.56
   CO2             1.876e-05   2.077e-05    -4.727    -4.683     0.044     35.49
   KHCO3           3.324e-06   3.877e-06    -5.478    -5.412     0.067     22.32
   CaHCO3+         6.112e-09   4.196e-09    -8.214    -8.377    -0.163     10.43
   (CO2)2          1.224e-11   1.355e-11   -10.912   -10.868     0.044     70.14
Ca            1.070e-02
   Ca+2            9.709e-03   2.339e-03    -2.013    -2.631    -0.618    -16.47
   CaSO4           9.584e-04   1.026e-03    -3.018    -2.989     0.030      8.51
   CaCO3           3.295e-05   3.844e-05    -4.482    -4.415     0.067    -14.56
   CaOH+           5.392e-08   3.991e-08    -7.268    -7.399    -0.131     (0)  
   CaHCO3+         6.112e-09   4.196e-09    -8.214    -8.377    -0.163     10.43
   CaHSO4+         9.638e-11   7.134e-11   -10.016   -10.147    -0.131     (0)  
Cl            5.660e-01
   Cl-             5.660e-01   3.532e-01    -0.247    -0.452    -0.205     19.08
   HCl             5.493e-10   1.057e-09    -9.260    -8.976     0.284     21.23
H(0)          1.735e-36
   H2              8.673e-37   1.019e-36   -36.062   -35.992     0.070     15.93
K             1.060e-02
   K+              1.037e-02   6.393e-03    -1.984    -2.194    -0.210     10.05
   KSO4-           2.275e-04   2.041e-04    -3.643    -3.690    -0.047     34.59
   KHCO3           3.324e-06   3.877e-06    -5.478    -5.412     0.067     22.32
Mg            5.510e-02
   Mg+2            4.731e-02   1.318e-02    -1.325    -1.880    -0.555    -20.82
   MgSO4           7.204e-03   9.799e-03    -2.142    -2.009     0.134      0.66
   MgHCO3+         2.912e-04   1.813e-04    -3.536    -3.742    -0.206      6.16
   Mg(SO4)2-2      1.752e-04   4.816e-05    -3.757    -4.317    -0.561     54.78
   MgCO3           9.198e-05   1.073e-04    -4.036    -3.969     0.067    -17.10
   MgOH+           2.555e-05   1.786e-05    -4.593    -4.748    -0.155     (0)  
Na            4.850e-01
   Na+             4.753e-01   3.374e-01    -0.323    -0.472    -0.149      0.05
   NaSO4-          9.539e-03   6.777e-03    -2.021    -2.169    -0.148     22.23
   NaHCO3          1.692e-04   2.135e-04    -3.772    -3.671     0.101     18.61
   Na2SO4          3.981e-06   4.562e-06    -5.400    -5.341     0.059     41.87
O(0)          3.509e-16
   O2              1.755e-16   2.046e-16   -15.756   -15.689     0.067     31.40
S(-2)         0.000e+00
   HS-             0.000e+00   0.000e+00  -110.061  -110.281    -0.220     21.90
   H2S             0.000e+00   0.000e+00  -111.596  -111.529     0.067     39.35
   S-2             0.000e+00   0.000e+00  -114.025  -114.753    -0.728     (0)  
   (H2S)2          0.000e+00   0.000e+00  -224.257  -224.190     0.067     29.37
S(6)          2.930e-02
   SO4-2           1.102e-02   1.936e-03    -1.958    -2.713    -0.755     18.36
   NaSO4-          9.539e-03   6.777e-03    -2.021    -2.169    -0.148     22.23
   MgSO4           7.204e-03   9.799e-03    -2.142    -2.009     0.134      0.66
   CaSO4           9.584e-04   1.026e-03    -3.018    -2.989     0.030      8.51
   KSO4-           2.275e-04   2.041e-04    -3.643    -3.690    -0.047     34.59
   Mg(SO4)2-2      1.752e-04   4.816e-05    -3.757    -4.317    -0.561     54.78
   Na2SO4          3.981e-06   4.562e-06    -5.400    -5.341     0.059     41.87
   HSO4-           3.428e-09   2.537e-09    -8.465    -8.596    -0.131     41.78
   CaHSO4+         9.638e-11   7.134e-11   -10.016   -10.147    -0.131     (0)  

------------------------------Saturation indices-------------------------------

  Phase               SI** log IAP   log K(313 K,   1 atm)

  Anhydrite        -0.79     -5.34   -4.56  CaSO4
  Aragonite         0.65     -7.80   -8.45  CaCO3
  Arcanite         -5.39     -7.10   -1.71  K2SO4
  Calcite           0.78     -7.80   -8.58  CaCO3
  CH4(g)         -110.46   -113.38   -2.91  CH4
  CO2(g)           -3.06     -4.68   -1.63  CO2
  Dolomite          2.55    -14.85  -17.40  CaMg(CO3)2
  Epsomite         -3.01     -4.65   -1.65  MgSO4:7H2O
  Gypsum           -0.73     -5.36   -4.63  CaSO4:2H2O
  H2(g)           -32.87    -35.99   -3.12  H2
  H2O(g)           -1.15     -0.01    1.14  H2O
  H2S(g)         -110.38   -118.30   -7.92  H2S
  Halite           -2.51     -0.92    1.58  NaCl
  Hexahydrite      -3.10     -4.64   -1.55  MgSO4:6H2O
  Kieserite        -3.46     -4.60   -1.14  MgSO4:H2O
  Mirabilite       -4.17     -3.74    0.42  Na2SO4:10H2O
  O2(g)           -12.70    -15.69   -2.98  O2
  Sulfur          -83.30    -78.75    4.55  S
  Sylvite          -3.62     -2.65    0.97  KCl
  Thenardite       -4.09     -3.66    0.44  Na2SO4

**For a gas, SI = log10(fugacity). Fugacity = pressure * phi / 1 atm.
  For ideal gases, phi = 1.

Reaction step 4.

Using solution 1.	
Using temperature 1.	

-----------------------------Solution composition------------------------------

	Elements           Molality       Moles

	C                 2.230e-03   2.230e-03
	Ca                1.070e-02   1.070e-02
	Cl                5.660e-01   5.660e-01
	K                 1.060e-02   1.060e-02
	Mg                5.510e-02   5.510e-02
	Na                4.850e-01   4.850e-01
	S                 2.930e-02   2.930e-02

----------------------------Description of solution----------------------------

                                       pH  =   7.766      Charge balance
                                       pe  =   7.214      Adjusted to redox equilibrium
      Specific Conductance (ÂµS/cm,  60Â°C)  = 90500
                          Density (g/cmÂł)  =   1.00856
                               Volume (L)  =   1.02755
                        Viscosity (mPa s)  =   0.50649
                        Activity of water  =   0.981
                 Ionic strength (mol/kgw)  =   6.608e-01
                       Mass of water (kg)  =   1.000e+00
                 Total alkalinity (eq/kg)  =   2.400e-03
                       Total CO2 (mol/kg)  =   2.230e-03
                         Temperature (Â°C)  =  60.00
                  Electrical balance (eq)  =   2.000e-04
 Percent error, 100*(Cat-|An|)/(Cat+|An|)  =   0.02
                               Iterations  =  10
                                  Total H  = 1.110145e+02
                                  Total O  = 5.563011e+01

----------------------------Distribution of species----------------------------

                                               Log       Log       Log    mole V
   Species          Molality    Activity  Molality  Activity     Gamma   cmÂł/mol

   OH-             9.330e-06   5.527e-06    -5.030    -5.258    -0.227     -2.21
   H+              2.304e-08   1.713e-08    -7.638    -7.766    -0.129      0.00
   H2O             5.551e+01   9.806e-01     1.744    -0.008     0.000     18.32
C(-4)         0.000e+00
   CH4             0.000e+00   0.000e+00  -104.411  -104.345     0.066     38.02
C(4)          2.230e-03
   HCO3-           1.547e-03   1.035e-03    -2.811    -2.985    -0.175     29.78
   MgHCO3+         3.102e-04   1.901e-04    -3.508    -3.721    -0.213      6.35
   NaHCO3          2.048e-04   2.577e-04    -3.689    -3.589     0.100     19.45
   MgCO3           7.342e-05   8.549e-05    -4.134    -4.068     0.066    -17.09
   CaCO3           3.547e-05   4.130e-05    -4.450    -4.384     0.066    -14.51
   CO2             3.189e-05   3.526e-05    -4.496    -4.453     0.044     36.49
   CO3-2           2.272e-05   4.337e-06    -4.644    -5.363    -0.719      0.07
   KHCO3           4.153e-06   4.836e-06    -5.382    -5.316     0.066     23.12
   CaHCO3+         1.324e-07   8.980e-08    -6.878    -7.047    -0.169     10.82
   (CO2)2          6.444e-11   7.125e-11   -10.191   -10.147     0.044     72.14
Ca            1.070e-02
   Ca+2            9.370e-03   2.130e-03    -2.028    -2.672    -0.643    -16.45
   CaSO4           1.294e-03   1.385e-03    -2.888    -2.859     0.029      9.65
   CaCO3           3.547e-05   4.130e-05    -4.450    -4.384     0.066    -14.51
   CaHCO3+         1.324e-07   8.980e-08    -6.878    -7.047    -0.169     10.82
   CaOH+           2.772e-08   2.024e-08    -7.557    -7.694    -0.137     (0)  
   CaHSO4+         2.124e-10   1.551e-10    -9.673    -9.809    -0.137     (0)  
Cl            5.660e-01
   Cl-             5.660e-01   3.473e-01    -0.247    -0.459    -0.212     18.99
   HCl             8.631e-10   1.649e-09    -9.064    -8.783     0.281     22.02
H(0)          9.654e-34
   H2              4.827e-34   5.663e-34   -33.316   -33.247     0.069     16.86
K             1.060e-02
   K+              1.038e-02   6.293e-03    -1.984    -2.201    -0.217     10.42
   KSO4-           2.132e-04   1.881e-04    -3.671    -3.726    -0.054     33.62
   KHCO3           4.153e-06   4.836e-06    -5.382    -5.316     0.066     23.12
Mg            5.510e-02
   Mg+2            4.579e-02   1.207e-02    -1.339    -1.918    -0.579    -21.39
   MgSO4           8.737e-03   1.184e-02    -2.059    -1.926     0.132      1.63
   MgHCO3+         3.102e-04   1.901e-04    -3.508    -3.721    -0.213      6.35
   Mg(SO4)2-2      1.302e-04   3.422e-05    -3.885    -4.466    -0.580     62.00
   MgCO3           7.342e-05   8.549e-05    -4.134    -4.068     0.066    -17.09
   MgOH+           6.139e-05   4.244e-05    -4.212    -4.372    -0.160     (0)  
Na            4.850e-01
   Na+             4.753e-01   3.317e-01    -0.323    -0.479    -0.156      0.53
   NaSO4-          9.499e-03   6.624e-03    -2.022    -2.179    -0.157     22.24
   NaHCO3          2.048e-04   2.577e-04    -3.689    -3.589     0.100     19.45
   Na2SO4          1.959e-05   2.242e-05    -4.708    -4.649     0.058     36.39
O(0)          3.664e-16
   O2              1.832e-16   2.133e-16   -15.737   -15.671     0.066     32.38
S(-2)         0.000e+00
   HS-             0.000e+00   0.000e+00  -101.143  -101.371    -0.227     22.12
   H2S             0.000e+00   0.000e+00  -102.582  -102.516     0.066     42.24
   S-2             0.000e+00   0.000e+00  -104.838  -105.591    -0.752     (0)  
   (H2S)2          0.000e+00   0.000e+00  -206.085  -206.019     0.066     28.10
S(6)          2.930e-02
   NaSO4-          9.499e-03   6.624e-03    -2.022    -2.179    -0.157     22.24
   SO4-2           9.277e-03   1.544e-03    -2.033    -2.811    -0.779     18.52
   MgSO4           8.737e-03   1.184e-02    -2.059    -1.926     0.132      1.63
   CaSO4           1.294e-03   1.385e-03    -2.888    -2.859     0.029      9.65
   KSO4-           2.132e-04   1.881e-04    -3.671    -3.726    -0.054     33.62
   Mg(SO4)2-2      1.302e-04   3.422e-05    -3.885    -4.466    -0.580     62.00
   Na2SO4          1.959e-05   2.242e-05    -4.708    -4.649     0.058     36.39
   HSO4-           8.291e-09   6.054e-09    -8.081    -8.218    -0.137     42.30
   CaHSO4+         2.124e-10   1.551e-10    -9.673    -9.809    -0.137     (0)  

------------------------------Saturation indices-------------------------------

  Phase               SI** log IAP   log K(333 K,   1 atm)

  Anhydrite        -0.58     -5.48   -4.90  CaSO4
  Aragonite         0.60     -8.03   -8.64  CaCO3
  Arcanite         -5.65     -7.21   -1.57  K2SO4
  Calcite           0.77     -8.03   -8.80  CaCO3
  CH4(g)         -101.35   -104.35   -2.99  CH4
  CO2(g)           -2.67     -4.45   -1.78  CO2
  Dolomite          2.64    -15.32  -17.96  CaMg(CO3)2
  Epsomite         -3.27     -4.79   -1.52  MgSO4:7H2O
  Gypsum           -0.71     -5.50   -4.79  CaSO4:2H2O
  H2(g)           -30.12    -33.25   -3.13  H2
  H2O(g)           -0.72     -0.01    0.71  H2O
  H2S(g)         -101.22   -109.14   -7.92  H2S
  Halite           -2.53     -0.94    1.60  NaCl
  Hexahydrite      -3.26     -4.78   -1.52  MgSO4:6H2O
  Kieserite        -3.45     -4.74   -1.28  MgSO4:H2O
  Mirabilite       -5.89     -3.85    2.03  Na2SO4:10H2O
  O2(g)           -12.61    -15.67   -3.06  O2
  Sulfur          -76.70    -72.55    4.15  S
  Sylvite          -3.72     -2.66    1.06  KCl
  Thenardite       -3.90     -3.77    0.13  Na2SO4

**For a gas, SI = log10(fugacity). Fugacity = pressure * phi / 1 atm.
  For ideal gases, phi = 1.

Reaction step 5.

Using solution 1.	
Using temperature 1.	

-----------------------------Solution composition------------------------------

	Elements           Molality       Moles

	C                 2.230e-03   2.230e-03
	Ca                1.070e-02   1.070e-02
	Cl                5.660e-01   5.660e-01
	K                 1.060e-02   1.060e-02
	Mg                5.510e-02   5.510e-02
	Na                4.850e-01   4.850e-01
	S                 2.930e-02   2.930e-02

----------------------------Description of solution----------------------------

                                       pH  =   7.509      Charge balance
                                       pe  =   6.264      Adjusted to redox equilibrium
      Specific Conductance (ÂµS/cm,  80Â°C)  = 111814
                          Density (g/cmÂł)  =   0.99712
                               Volume (L)  =   1.03934
                        Viscosity (mPa s)  =   0.38664
                        Activity of water  =   0.981
                 Ionic strength (mol/kgw)  =   6.539e-01
                       Mass of water (kg)  =   1.000e+00
                 Total alkalinity (eq/kg)  =   2.400e-03
                       Total CO2 (mol/kg)  =   2.230e-03
                         Temperature (Â°C)  =  80.00
                  Electrical balance (eq)  =   2.000e-04
 Percent error, 100*(Cat-|An|)/(Cat+|An|)  =   0.02
                               Iterations  =   9
                                  Total H  = 1.110145e+02
                                  Total O  = 5.563011e+01

----------------------------Distribution of species----------------------------

                                               Log       Log       Log    mole V
   Species          Molality    Activity  Molality  Activity     Gamma   cmÂł/mol

   OH-             1.404e-05   8.155e-06    -4.853    -5.089    -0.236     -2.69
   H+              4.215e-08   3.100e-08    -7.375    -7.509    -0.133      0.00
   H2O             5.551e+01   9.807e-01     1.744    -0.008     0.000     18.54
C(-4)         0.000e+00
   CH4             0.000e+00   0.000e+00   -96.763   -96.697     0.065     39.45
C(4)          2.230e-03
   HCO3-           1.482e-03   9.760e-04    -2.829    -3.011    -0.181     29.95
   MgHCO3+         3.392e-04   2.041e-04    -3.470    -3.690    -0.221      6.35
   NaHCO3          2.461e-04   3.089e-04    -3.609    -3.510     0.099     20.01
   CO2             6.086e-05   6.722e-05    -4.216    -4.173     0.043     37.67
   MgCO3           4.931e-05   5.733e-05    -4.307    -4.242     0.065    -17.08
   CaCO3           3.274e-05   3.806e-05    -4.485    -4.420     0.065    -14.47
   CO3-2           1.313e-05   2.358e-06    -4.882    -5.627    -0.746     -0.99
   KHCO3           4.920e-06   5.719e-06    -5.308    -5.243     0.065     23.66
   CaHCO3+         1.389e-06   9.285e-07    -5.857    -6.032    -0.175     11.03
   (CO2)2          3.270e-10   3.612e-10    -9.485    -9.442     0.043     74.50
Ca            1.070e-02
   Ca+2            9.020e-03   1.918e-03    -2.045    -2.717    -0.672    -16.67
   CaSO4           1.646e-03   1.760e-03    -2.784    -2.754     0.029     10.43
   CaCO3           3.274e-05   3.806e-05    -4.485    -4.420     0.065    -14.47
   CaHCO3+         1.389e-06   9.285e-07    -5.857    -6.032    -0.175     11.03
   CaOH+           1.400e-08   1.007e-08    -7.854    -7.997    -0.143     (0)  
   CaHSO4+         4.774e-10   3.432e-10    -9.321    -9.464    -0.143     (0)  
Cl            5.660e-01
   Cl-             5.660e-01   3.405e-01    -0.247    -0.468    -0.221     18.49
   HCl             1.362e-09   2.585e-09    -8.866    -8.587     0.278     22.59
H(0)          2.169e-31
   H2              1.085e-31   1.270e-31   -30.965   -30.896     0.069     17.61
K             1.060e-02
   K+              1.039e-02   6.172e-03    -1.983    -2.210    -0.226     10.69
   KSO4-           2.052e-04   1.778e-04    -3.688    -3.750    -0.062     32.32
   KHCO3           4.920e-06   5.719e-06    -5.308    -5.243     0.065     23.66
Mg            5.510e-02
   Mg+2            4.428e-02   1.095e-02    -1.354    -1.961    -0.607    -22.06
   MgSO4           1.021e-02   1.380e-02    -1.991    -1.860     0.131      2.32
   MgHCO3+         3.392e-04   2.041e-04    -3.470    -3.690    -0.221      6.35
   MgOH+           1.221e-04   8.327e-05    -3.913    -4.079    -0.166     (0)  
   Mg(SO4)2-2      9.566e-05   2.385e-05    -4.019    -4.622    -0.603     68.54
   MgCO3           4.931e-05   5.733e-05    -4.307    -4.242     0.065    -17.08
Na            4.850e-01
   Na+             4.754e-01   3.253e-01    -0.323    -0.488    -0.165      0.87
   NaSO4-          9.253e-03   6.316e-03    -2.034    -2.200    -0.166     21.57
   NaHCO3          2.461e-04   3.089e-04    -3.609    -3.510     0.099     20.01
   Na2SO4          7.392e-05   8.446e-05    -4.131    -4.073     0.058     32.59
O(0)          3.893e-16
   O2              1.947e-16   2.263e-16   -15.711   -15.645     0.065     33.17
S(-2)         0.000e+00
   HS-             0.000e+00   0.000e+00   -93.554   -93.790    -0.236     21.93
   H2S             0.000e+00   0.000e+00   -94.823   -94.757     0.065     44.39
   S-2             0.000e+00   0.000e+00   -97.038   -97.818    -0.780     (0)  
   (H2S)2          0.000e+00   0.000e+00  -190.470  -190.405     0.065     26.43
S(6)          2.930e-02
   MgSO4           1.021e-02   1.380e-02    -1.991    -1.860     0.131      2.32
   NaSO4-          9.253e-03   6.316e-03    -2.034    -2.200    -0.166     21.57
   SO4-2           7.721e-03   1.206e-03    -2.112    -2.919    -0.806     17.39
   CaSO4           1.646e-03   1.760e-03    -2.784    -2.754     0.029     10.43
   KSO4-           2.052e-04   1.778e-04    -3.688    -3.750    -0.062     32.32
   Mg(SO4)2-2      9.566e-05   2.385e-05    -4.019    -4.622    -0.603     68.54
   Na2SO4          7.392e-05   8.446e-05    -4.131    -4.073     0.058     32.59
   HSO4-           2.071e-08   1.489e-08    -7.684    -7.827    -0.143     42.40
   CaHSO4+         4.774e-10   3.432e-10    -9.321    -9.464    -0.143     (0)  

------------------------------Saturation indices-------------------------------

  Phase               SI** log IAP   log K(353 K,   1 atm)

  Anhydrite        -0.37     -5.64   -5.26  CaSO4
  Aragonite         0.53     -8.34   -8.88  CaCO3
  Arcanite         -5.85     -7.34   -1.49  K2SO4
  Calcite           0.73     -8.34   -9.07  CaCO3
  CH4(g)          -93.68    -96.70   -3.02  CH4
  CO2(g)           -2.27     -4.17   -1.90  CO2
  Dolomite          2.73    -15.93  -18.66  CaMg(CO3)2
  Epsomite         -3.54     -4.94   -1.40  MgSO4:7H2O
  Gypsum           -0.66     -5.65   -5.00  CaSO4:2H2O
  H2(g)           -27.78    -30.90   -3.12  H2
  H2O(g)           -0.34     -0.01    0.33  H2O
  H2S(g)          -93.35   -101.30   -7.95  H2S
  Halite           -2.56     -0.96    1.61  NaCl
  Hexahydrite      -3.44     -4.93   -1.49  MgSO4:6H2O
  Kieserite        -3.31     -4.89   -1.58  MgSO4:H2O
  Mirabilite       -7.72     -3.98    3.74  Na2SO4:10H2O
  O2(g)           -12.54    -15.65   -3.11  O2
  Sulfur          -71.01    -67.21    3.80  S
  Sylvite          -3.81     -2.68    1.13  KCl
  Thenardite       -3.71     -3.89   -0.19  Na2SO4

**For a gas, SI = log10(fugacity). Fugacity = pressure * phi / 1 atm.
  For ideal gases, phi = 1.

Reaction step 6.

Using solution 1.	
Using temperature 1.	

-----------------------------Solution composition------------------------------

	Elements           Molality       Moles

	C                 2.230e-03   2.230e-03
	Ca                1.070e-02   1.070e-02
	Cl                5.660e-01   5.660e-01
	K                 1.060e-02   1.060e-02
	Mg                5.510e-02   5.510e-02
	Na                4.850e-01   4.850e-01
	S                 2.930e-02   2.930e-02

----------------------------Description of solution----------------------------

                                       pH  =   7.260      Charge balance
                                       pe  =   5.576      Adjusted to redox equilibrium
      Specific Conductance (ÂµS/cm, 100Â°C)  = 131933
                          Density (g/cmÂł)  =   0.98386
                               Volume (L)  =   1.05335
                        Viscosity (mPa s)  =   0.30878
                        Activity of water  =   0.981
                 Ionic strength (mol/kgw)  =   6.474e-01
                       Mass of water (kg)  =   1.000e+00
                 Total alkalinity (eq/kg)  =   2.400e-03
                       Total CO2 (mol/kg)  =   2.230e-03
                         Temperature (Â°C)  = 100.00
                  Electrical balance (eq)  =   2.000e-04
 Percent error, 100*(Cat-|An|)/(Cat+|An|)  =   0.02
                               Iterations  =   8
                                  Total H  = 1.110145e+02
                                  Total O  = 5.563011e+01

----------------------------Distribution of species----------------------------

                                               Log       Log       Log    mole V
   Species          Molality    Activity  Molality  Activity     Gamma   cmÂł/mol

   OH-             1.815e-05   1.030e-05    -4.741    -4.987    -0.246     -3.63
   H+              7.570e-08   5.499e-08    -7.121    -7.260    -0.139      0.00
   H2O             5.551e+01   9.807e-01     1.744    -0.008     0.000     18.80
C(-4)         0.000e+00
   CH4             0.000e+00   0.000e+00   -91.115   -91.050     0.065     41.06
C(4)          2.230e-03
   HCO3-           1.376e-03   8.901e-04    -2.861    -3.051    -0.189     29.61
   MgHCO3+         3.710e-04   2.186e-04    -3.431    -3.660    -0.230      6.18
   NaHCO3          2.883e-04   3.611e-04    -3.540    -3.442     0.098     20.40
   CO2             1.208e-04   1.333e-04    -3.918    -3.875     0.043     39.13
   MgCO3           2.902e-05   3.368e-05    -4.537    -4.473     0.065    -17.07
   CaCO3           2.462e-05   2.858e-05    -4.609    -4.544     0.065    -14.43
   CaHCO3+         7.825e-06   5.146e-06    -5.107    -5.289    -0.182     11.11
   CO3-2           6.768e-06   1.132e-06    -5.170    -5.946    -0.777     -2.93
   KHCO3           5.468e-06   6.347e-06    -5.262    -5.197     0.065     24.06
   (CO2)2          1.434e-09   1.582e-09    -8.844    -8.801     0.043     77.42
Ca            1.070e-02
   Ca+2            8.679e-03   1.709e-03    -2.062    -2.767    -0.706    -17.10
   CaSO4           1.989e-03   2.125e-03    -2.701    -2.673     0.029     10.99
   CaCO3           2.462e-05   2.858e-05    -4.609    -4.544     0.065    -14.43
   CaHCO3+         7.825e-06   5.146e-06    -5.107    -5.289    -0.182     11.11
   CaOH+           7.161e-09   5.058e-09    -8.145    -8.296    -0.151     (0)  
   CaHSO4+         1.059e-09   7.479e-10    -8.975    -9.126    -0.151     (0)  
Cl            5.660e-01
   Cl-             5.660e-01   3.329e-01    -0.247    -0.478    -0.230     17.60
   HCl             2.100e-09   3.961e-09    -8.678    -8.402     0.276     23.04
H(0)          1.418e-29
   H2              7.090e-30   8.292e-30   -29.149   -29.081     0.068     18.32
K             1.060e-02
   K+              1.039e-02   6.034e-03    -1.983    -2.219    -0.236     10.93
   KSO4-           2.013e-04   1.709e-04    -3.696    -3.767    -0.071     30.60
   KHCO3           5.468e-06   6.347e-06    -5.262    -5.197     0.065     24.06
Mg            5.510e-02
   Mg+2            4.287e-02   9.854e-03    -1.368    -2.006    -0.639    -22.85
   MgSO4           1.154e-02   1.555e-02    -1.938    -1.808     0.129      2.86
   MgHCO3+         3.710e-04   2.186e-04    -3.431    -3.660    -0.230      6.18
   MgOH+           2.128e-04   1.429e-04    -3.672    -3.845    -0.173     (0)  
   Mg(SO4)2-2      6.936e-05   1.629e-05    -4.159    -4.788    -0.629     74.55
   MgCO3           2.902e-05   3.368e-05    -4.537    -4.473     0.065    -17.07
Na            4.850e-01
   Na+             4.754e-01   3.183e-01    -0.323    -0.497    -0.174      1.14
   NaSO4-          8.836e-03   5.886e-03    -2.054    -2.230    -0.176     20.22
   NaHCO3          2.883e-04   3.611e-04    -3.540    -3.442     0.098     20.40
   Na2SO4          2.226e-04   2.540e-04    -3.652    -3.595     0.057     29.73
O(0)          9.978e-16
   O2              4.989e-16   5.791e-16   -15.302   -15.237     0.065     33.90
S(-2)         0.000e+00
   HS-             0.000e+00   0.000e+00   -87.913   -88.159    -0.246     21.38
   H2S             0.000e+00   0.000e+00   -88.963   -88.898     0.065     46.17
   S-2             0.000e+00   0.000e+00   -91.222   -92.035    -0.813     (0)  
   (H2S)2          0.000e+00   0.000e+00  -178.694  -178.629     0.065     24.22
S(6)          2.930e-02
   MgSO4           1.154e-02   1.555e-02    -1.938    -1.808     0.129      2.86
   NaSO4-          8.836e-03   5.886e-03    -2.054    -2.230    -0.176     20.22
   SO4-2           6.368e-03   9.237e-04    -2.196    -3.034    -0.838     15.03
   CaSO4           1.989e-03   2.125e-03    -2.701    -2.673     0.029     10.99
   Na2SO4          2.226e-04   2.540e-04    -3.652    -3.595     0.057     29.73
   KSO4-           2.013e-04   1.709e-04    -3.696    -3.767    -0.071     30.60
   Mg(SO4)2-2      6.936e-05   1.629e-05    -4.159    -4.788    -0.629     74.55
   HSO4-           5.154e-08   3.640e-08    -7.288    -7.439    -0.151     42.16
   CaHSO4+         1.059e-09   7.479e-10    -8.975    -9.126    -0.151     (0)  

------------------------------Saturation indices-------------------------------

  Phase               SI** log IAP   log K(373 K,   1 atm)

  Anhydrite        -0.16     -5.80   -5.64  CaSO4
  Aragonite         0.45     -8.71   -9.17  CaCO3
  Arcanite         -6.01     -7.47   -1.46  K2SO4
  Calcite           0.67     -8.71   -9.39  CaCO3
  CH4(g)          -88.05    -91.05   -3.00  CH4
  CO2(g)           -1.90     -3.88   -1.98  CO2
  Dolomite          2.81    -16.67  -19.48  CaMg(CO3)2
  Epsomite         -3.83     -5.10   -1.27  MgSO4:7H2O
  Gypsum           -0.57     -5.82   -5.25  CaSO4:2H2O
  H2(g)           -26.00    -29.08   -3.09  H2
  H2O(g)           -0.01     -0.01    0.00  H2O
  H2S(g)          -87.42    -95.42   -8.00  H2S
  Halite           -2.59     -0.97    1.62  NaCl
  Hexahydrite      -3.63     -5.09   -1.46  MgSO4:6H2O
  Kieserite        -3.06     -5.05   -1.99  MgSO4:H2O
  Mirabilite       -9.65     -4.11    5.53  Na2SO4:10H2O
  O2(g)           -12.12    -15.24   -3.11  O2
  Sulfur          -66.71    -63.23    3.48  S
  Sylvite          -3.90     -2.70    1.20  KCl
  Thenardite       -3.52     -4.03   -0.51  Na2SO4

**For a gas, SI = log10(fugacity). Fugacity = pressure * phi / 1 atm.
  For ideal gases, phi = 1.

Reaction step 7.

Using solution 1.	
Using temperature 1.	

-----------------------------Solution composition------------------------------

	Elements           Molality       Moles

	C                 2.230e-03   2.230e-03
	Ca                1.070e-02   1.070e-02
	Cl                5.660e-01   5.660e-01
	K                 1.060e-02   1.060e-02
	Mg                5.510e-02   5.510e-02
	Na                4.850e-01   4.850e-01
	S                 2.930e-02   2.930e-02

----------------------------Description of solution----------------------------

                                       pH  =   7.036      Charge balance
                                       pe  =   4.798      Adjusted to redox equilibrium
      Specific Conductance (ÂµS/cm, 120Â°C)  = 150189
                          Density (g/cmÂł)  =   0.96899
                               Volume (L)  =   1.06952
                        Viscosity (mPa s)  =   0.25539
                        Activity of water  =   0.981
                 Ionic strength (mol/kgw)  =   6.416e-01
                       Mass of water (kg)  =   1.000e+00
                 Total alkalinity (eq/kg)  =   2.400e-03
                       Total CO2 (mol/kg)  =   2.230e-03
                         Temperature (Â°C)  = 120.00
                           Pressure (atm)  =  1.92
                  Electrical balance (eq)  =   2.000e-04
 Percent error, 100*(Cat-|An|)/(Cat+|An|)  =   0.02
                               Iterations  =   8
                                  Total H  = 1.110145e+02
                                  Total O  = 5.563011e+01

----------------------------Distribution of species----------------------------

                                               Log       Log       Log    mole V
   Species          Molality    Activity  Molality  Activity     Gamma   cmÂł/mol

   OH-             2.151e-05   1.190e-05    -4.667    -4.925    -0.257     -5.07
   H+              1.284e-07   9.201e-08    -6.891    -7.036    -0.145      0.00
   H2O             5.551e+01   9.807e-01     1.744    -0.008     0.000     19.10
C(-4)         0.000e+00
   CH4             0.000e+00   0.000e+00   -84.826   -84.762     0.064     43.00
C(4)          2.230e-03
   HCO3-           1.216e-03   7.709e-04    -2.915    -3.113    -0.198     28.71
   MgHCO3+         3.957e-04   2.276e-04    -3.403    -3.643    -0.240      5.86
   NaHCO3          3.229e-04   4.036e-04    -3.491    -3.394     0.097     20.69
   CO2             2.304e-04   2.540e-04    -3.638    -3.595     0.042     40.99
   CaHCO3+         2.554e-05   1.648e-05    -4.593    -4.783    -0.190     11.11
   MgCO3           1.562e-05   1.811e-05    -4.806    -4.742     0.064    -17.03
   CaCO3           1.477e-05   1.712e-05    -4.831    -4.766     0.064    -14.38
   KHCO3           5.628e-06   6.523e-06    -5.250    -5.186     0.064     24.35
   CO3-2           3.243e-06   5.006e-07    -5.489    -6.300    -0.811     -5.81
   (CO2)2          4.795e-09   5.286e-09    -8.319    -8.277     0.042     81.14
Ca            1.070e-02
   Ca+2            8.365e-03   1.511e-03    -2.078    -2.821    -0.743    -17.73
   CaSO4           2.295e-03   2.451e-03    -2.639    -2.611     0.029     11.42
   CaHCO3+         2.554e-05   1.648e-05    -4.593    -4.783    -0.190     11.11
   CaCO3           1.477e-05   1.712e-05    -4.831    -4.766     0.064    -14.38
   CaOH+           3.860e-09   2.673e-09    -8.413    -8.573    -0.160     (0)  
   CaHSO4+         2.216e-09   1.535e-09    -8.654    -8.814    -0.160     (0)  
Cl            5.660e-01
   Cl-             5.660e-01   3.245e-01    -0.247    -0.489    -0.242     16.28
   HCl             3.043e-09   5.706e-09    -8.517    -8.244     0.273     23.43
H(0)          1.269e-27
   H2              6.346e-28   7.411e-28   -27.197   -27.130     0.067     19.04
K             1.060e-02
   K+              1.039e-02   5.879e-03    -1.983    -2.231    -0.247     11.16
   KSO4-           1.999e-04   1.659e-04    -3.699    -3.780    -0.081     28.34
   KHCO3           5.628e-06   6.523e-06    -5.250    -5.186     0.064     24.35
Mg            5.510e-02
   Mg+2            4.162e-02   8.814e-03    -1.381    -2.055    -0.674    -23.82
   MgSO4           1.267e-02   1.702e-02    -1.897    -1.769     0.128      3.34
   MgHCO3+         3.957e-04   2.276e-04    -3.403    -3.643    -0.240      5.86
   MgOH+           3.459e-04   2.281e-04    -3.461    -3.642    -0.181     (0)  
   Mg(SO4)2-2      4.945e-05   1.085e-05    -4.306    -4.965    -0.659     80.05
   MgCO3           1.562e-05   1.811e-05    -4.806    -4.742     0.064    -17.03
Na            4.850e-01
   Na+             4.753e-01   3.104e-01    -0.323    -0.508    -0.185      1.37
   NaSO4-          8.276e-03   5.364e-03    -2.082    -2.271    -0.188     18.07
   Na2SO4          5.512e-04   6.282e-04    -3.259    -3.202     0.057     27.46
   NaHCO3          3.229e-04   4.036e-04    -3.491    -3.394     0.097     20.69
O(0)          3.305e-16
   O2              1.652e-16   1.916e-16   -15.782   -15.718     0.064     34.64
S(-2)         0.000e+00
   HS-             0.000e+00   0.000e+00   -81.579   -81.837    -0.257     20.46
   H2S             0.000e+00   0.000e+00   -82.386   -82.322     0.064     47.79
   S-2             0.000e+00   0.000e+00   -84.726   -85.575    -0.849     (0)  
   (H2S)2          0.000e+00   0.000e+00  -165.518  -165.453     0.064     21.36
S(6)          2.930e-02
   MgSO4           1.267e-02   1.702e-02    -1.897    -1.769     0.128      3.34
   NaSO4-          8.276e-03   5.364e-03    -2.082    -2.271    -0.188     18.07
   SO4-2           5.210e-03   6.951e-04    -2.283    -3.158    -0.875     11.33
   CaSO4           2.295e-03   2.451e-03    -2.639    -2.611     0.029     11.42
   Na2SO4          5.512e-04   6.282e-04    -3.259    -3.202     0.057     27.46
   KSO4-           1.999e-04   1.659e-04    -3.699    -3.780    -0.081     28.34
   Mg(SO4)2-2      4.945e-05   1.085e-05    -4.306    -4.965    -0.659     80.05
   HSO4-           1.219e-07   8.443e-08    -6.914    -7.073    -0.160     41.60
   CaHSO4+         2.216e-09   1.535e-09    -8.654    -8.814    -0.160     (0)  

------------------------------Saturation indices-------------------------------

  Phase               SI** log IAP   log K(393 K,   2 atm)

  Anhydrite         0.05     -5.98   -6.03  CaSO4
  Aragonite         0.38     -9.12   -9.50  CaCO3
  Arcanite         -6.14     -7.62   -1.48  K2SO4
  Calcite           0.61     -9.12   -9.73  CaCO3
  CH4(g)          -81.79    -84.76   -2.97  CH4
  CO2(g)           -1.56     -3.60   -2.03  CO2
  Dolomite          2.92    -17.48  -20.40  CaMg(CO3)2
  Epsomite         -4.12     -5.27   -1.15  MgSO4:7H2O
  Gypsum           -0.46     -6.00   -5.53  CaSO4:2H2O
  H2(g)           -24.09    -27.13   -3.04  H2
  H2O(g)            0.28     -0.01   -0.29  H2O
  H2S(g)          -80.79    -88.87   -8.08  H2S
  Halite           -2.63     -1.00    1.63  NaCl
  Hexahydrite      -3.83     -5.26   -1.44  MgSO4:6H2O
  Kieserite        -2.72     -5.22   -2.50  MgSO4:H2O
  Mirabilite      -11.65     -4.26    7.40  Na2SO4:10H2O
  O2(g)           -12.62    -15.72   -3.10  O2
  Sulfur          -61.85    -58.65    3.20  S
  Sylvite          -3.98     -2.72    1.26  KCl
  Thenardite       -3.33     -4.17   -0.84  Na2SO4

**For a gas, SI = log10(fugacity). Fugacity = pressure * phi / 1 atm.
  For ideal gases, phi = 1.

Reaction step 8.

Using solution 1.	
Using temperature 1.	

-----------------------------Solution composition------------------------------

	Elements           Molality       Moles

	C                 2.230e-03   2.230e-03
	Ca                1.070e-02   1.070e-02
	Cl                5.660e-01   5.660e-01
	K                 1.060e-02   1.060e-02
	Mg                5.510e-02   5.510e-02
	Na                4.850e-01   4.850e-01
	S                 2.930e-02   2.930e-02

----------------------------Description of solution----------------------------

                                       pH  =   6.841      Charge balance
                                       pe  =   4.334      Adjusted to redox equilibrium
      Specific Conductance (ÂµS/cm, 140Â°C)  = 166120
                          Density (g/cmÂł)  =   0.95259
                               Volume (L)  =   1.08793
                        Viscosity (mPa s)  =   0.21718
                        Activity of water  =   0.981
                 Ionic strength (mol/kgw)  =   6.364e-01
                       Mass of water (kg)  =   1.000e+00
                 Total alkalinity (eq/kg)  =   2.400e-03
                       Total CO2 (mol/kg)  =   2.230e-03
                         Temperature (Â°C)  = 140.00
                           Pressure (atm)  =  3.50
                  Electrical balance (eq)  =   2.000e-04
 Percent error, 100*(Cat-|An|)/(Cat+|An|)  =   0.02
                               Iterations  =  12
                                  Total H  = 1.110145e+02
                                  Total O  = 5.563011e+01

----------------------------Distribution of species----------------------------

                                               Log       Log       Log    mole V
   Species          Molality    Activity  Molality  Activity     Gamma   cmÂł/mol

   OH-             2.398e-05   1.288e-05    -4.620    -4.890    -0.270     -7.13
   H+              2.046e-07   1.443e-07    -6.689    -6.841    -0.152      0.00
   H2O             5.551e+01   9.808e-01     1.744    -0.008     0.000     19.45
C(-4)         0.000e+00
   CH4             0.000e+00   0.000e+00   -81.193   -81.129     0.064     45.44
C(4)          2.230e-03
   HCO3-           1.007e-03   6.243e-04    -2.997    -3.205    -0.208     27.14
   CO2             4.070e-04   4.483e-04    -3.390    -3.348     0.042     43.41
   MgHCO3+         4.030e-04   2.256e-04    -3.395    -3.647    -0.252      5.35
   NaHCO3          3.397e-04   4.238e-04    -3.469    -3.373     0.096     20.89
   CaHCO3+         5.127e-05   3.240e-05    -4.290    -4.489    -0.199     11.00
   MgCO3           7.740e-06   8.962e-06    -5.111    -5.048     0.064    -16.98
   CaCO3           6.815e-06   7.890e-06    -5.167    -5.103     0.064    -14.32
   KHCO3           5.296e-06   6.131e-06    -5.276    -5.212     0.064     24.58
   CO3-2           1.454e-06   2.050e-07    -5.837    -6.688    -0.851     -9.82
   (CO2)2          1.170e-08   1.289e-08    -7.932    -7.890     0.042     85.98
Ca            1.070e-02
   Ca+2            8.101e-03   1.328e-03    -2.091    -2.877    -0.785    -18.60
   CaSO4           2.541e-03   2.712e-03    -2.595    -2.567     0.028     11.75
   CaHCO3+         5.127e-05   3.240e-05    -4.290    -4.489    -0.199     11.00
   CaCO3           6.815e-06   7.890e-06    -5.167    -5.103     0.064    -14.32
   CaHSO4+         4.332e-09   2.933e-09    -8.363    -8.533    -0.169     (0)  
   CaOH+           2.212e-09   1.498e-09    -8.655    -8.825    -0.169     (0)  
Cl            5.660e-01
   Cl-             5.660e-01   3.153e-01    -0.247    -0.501    -0.254     14.41
   HCl             4.114e-09   7.675e-09    -8.386    -8.115     0.271     23.79
H(0)          2.371e-26
   H2              1.186e-26   1.383e-26   -25.926   -25.859     0.067     19.85
K             1.060e-02
   K+              1.040e-02   5.709e-03    -1.983    -2.243    -0.260     11.40
   KSO4-           1.996e-04   1.616e-04    -3.700    -3.792    -0.092     25.32
   KHCO3           5.296e-06   6.131e-06    -5.276    -5.212     0.064     24.58
Mg            5.510e-02
   Mg+2            4.061e-02   7.843e-03    -1.391    -2.106    -0.714    -25.03
   MgSO4           1.351e-02   1.811e-02    -1.869    -1.742     0.127      3.79
   MgOH+           5.380e-04   3.478e-04    -3.269    -3.459    -0.189     (0)  
   MgHCO3+         4.030e-04   2.256e-04    -3.395    -3.647    -0.252      5.35
   Mg(SO4)2-2      3.456e-05   7.022e-06    -4.461    -5.154    -0.692     84.99
   MgCO3           7.740e-06   8.962e-06    -5.111    -5.048     0.064    -16.98
Na            4.850e-01
   Na+             4.748e-01   3.015e-01    -0.324    -0.521    -0.197      1.60
   NaSO4-          7.598e-03   4.776e-03    -2.119    -2.321    -0.202     14.87
   Na2SO4          1.149e-03   1.308e-03    -2.940    -2.883     0.056     25.53
   NaHCO3          3.397e-04   4.238e-04    -3.469    -3.373     0.096     20.89
O(0)          7.042e-16
   O2              3.521e-16   4.077e-16   -15.453   -15.390     0.064     35.45
S(-2)         0.000e+00
   HS-             0.000e+00   0.000e+00   -77.848   -78.118    -0.270     19.09
   H2S             0.000e+00   0.000e+00   -78.399   -78.336     0.064     49.41
   S-2             0.000e+00   0.000e+00   -80.835   -81.726    -0.891     (0)  
   (H2S)2          0.000e+00   0.000e+00  -157.548  -157.484     0.064     17.57
S(6)          2.930e-02
   MgSO4           1.351e-02   1.811e-02    -1.869    -1.742     0.127      3.79
   NaSO4-          7.598e-03   4.776e-03    -2.119    -2.321    -0.202     14.87
   SO4-2           4.233e-03   5.136e-04    -2.373    -3.289    -0.916      5.96
   CaSO4           2.541e-03   2.712e-03    -2.595    -2.567     0.028     11.75
   Na2SO4          1.149e-03   1.308e-03    -2.940    -2.883     0.056     25.53
   KSO4-           1.996e-04   1.616e-04    -3.700    -3.792    -0.092     25.32
   Mg(SO4)2-2      3.456e-05   7.022e-06    -4.461    -5.154    -0.692     84.99
   HSO4-           2.709e-07   1.835e-07    -6.567    -6.736    -0.169     40.68
   CaHSO4+         4.332e-09   2.933e-09    -8.363    -8.533    -0.169     (0)  

------------------------------Saturation indices-------------------------------

  Phase               SI** log IAP   log K(413 K,   3 atm)

  Anhydrite         0.26     -6.17   -6.42  CaSO4
  Aragonite         0.31     -9.57   -9.87  CaCO3
  Arcanite         -6.24     -7.78   -1.54  K2SO4
  Calcite           0.55     -9.57  -10.12  CaCO3
  CH4(g)          -78.21    -81.13   -2.92  CH4
  CO2(g)           -1.28     -3.35   -2.07  CO2
  Dolomite          3.04    -18.36  -21.40  CaMg(CO3)2
  Epsomite         -4.43     -5.45   -1.02  MgSO4:7H2O
  Gypsum           -0.34     -6.18   -5.84  CaSO4:2H2O
  H2(g)           -22.87    -25.86   -2.99  H2
  H2O(g)            0.53     -0.01   -0.54  H2O
  H2S(g)          -76.78    -84.96   -8.18  H2S
  Halite           -2.66     -1.02    1.64  NaCl
  Hexahydrite      -4.04     -5.45   -1.41  MgSO4:6H2O
  Kieserite        -2.32     -5.40   -3.08  MgSO4:H2O
  Mirabilite      -13.73     -4.42    9.32  Na2SO4:10H2O
  O2(g)           -12.32    -15.39   -3.06  O2
  Sulfur          -58.93    -55.99    2.94  S
  Sylvite          -4.06     -2.74    1.31  KCl
  Thenardite       -3.16     -4.33   -1.17  Na2SO4

**For a gas, SI = log10(fugacity). Fugacity = pressure * phi / 1 atm.
  For ideal gases, phi = 1.

Reaction step 9.

Using solution 1.	
Using temperature 1.	

-----------------------------Solution composition------------------------------

	Elements           Molality       Moles

	C                 2.230e-03   2.230e-03
	Ca                1.070e-02   1.070e-02
	Cl                5.660e-01   5.660e-01
	K                 1.060e-02   1.060e-02
	Mg                5.510e-02   5.510e-02
	Na                4.850e-01   4.850e-01
	S                 2.930e-02   2.930e-02

----------------------------Description of solution----------------------------

                                       pH  =   6.667      Charge balance
                                       pe  =   4.574      Adjusted to redox equilibrium
      Specific Conductance (ÂµS/cm, 160Â°C)  = 179482
                          Density (g/cmÂł)  =   0.93472
                               Volume (L)  =   1.10873
                        Viscosity (mPa s)  =   0.18886
                        Activity of water  =   0.981
                 Ionic strength (mol/kgw)  =   6.321e-01
                       Mass of water (kg)  =   1.000e+00
                 Total alkalinity (eq/kg)  =   2.400e-03
                       Total CO2 (mol/kg)  =   2.230e-03
                         Temperature (Â°C)  = 160.00
                           Pressure (atm)  =  5.99
                  Electrical balance (eq)  =   2.000e-04
 Percent error, 100*(Cat-|An|)/(Cat+|An|)  =   0.02
                               Iterations  =  11
                                  Total H  = 1.110145e+02
                                  Total O  = 5.563011e+01

----------------------------Distribution of species----------------------------

                                               Log       Log       Log    mole V
   Species          Molality    Activity  Molality  Activity     Gamma   cmÂł/mol

   OH-             2.518e-05   1.309e-05    -4.599    -4.883    -0.284    -10.00
   H+              3.106e-07   2.151e-07    -6.508    -6.667    -0.160      0.00
   H2O             5.551e+01   9.808e-01     1.744    -0.008     0.000     19.85
C(-4)         0.000e+00
   CH4             0.000e+00   0.000e+00   -83.296   -83.233     0.063     48.61
C(4)          2.230e-03
   HCO3-           7.740e-04   4.676e-04    -3.111    -3.330    -0.219     24.66
   CO2             6.614e-04   7.281e-04    -3.180    -3.138     0.042     46.62
   MgHCO3+         3.855e-04   2.093e-04    -3.414    -3.679    -0.265      4.61
   NaHCO3          3.311e-04   4.125e-04    -3.480    -3.385     0.095     21.03
   CaHCO3+         6.657e-05   4.107e-05    -4.177    -4.386    -0.210     10.80
   KHCO3           4.515e-06   5.223e-06    -5.345    -5.282     0.063     24.76
   MgCO3           3.483e-06   4.028e-06    -5.458    -5.395     0.063    -16.91
   CaCO3           2.318e-06   2.681e-06    -5.635    -5.572     0.063    -14.24
   CO3-2           6.026e-07   7.670e-08    -6.220    -7.115    -0.895    -15.32
   (CO2)2          2.099e-08   2.310e-08    -7.678    -7.636     0.042     92.41
Ca            1.070e-02
   Ca+2            7.917e-03   1.163e-03    -2.101    -2.934    -0.833    -19.78
   CaSO4           2.714e-03   2.896e-03    -2.566    -2.538     0.028     12.02
   CaHCO3+         6.657e-05   4.107e-05    -4.177    -4.386    -0.210     10.80
   CaCO3           2.318e-06   2.681e-06    -5.635    -5.572     0.063    -14.24
   CaHSO4+         8.010e-09   5.290e-09    -8.096    -8.277    -0.180     (0)  
   CaOH+           1.333e-09   8.803e-10    -8.875    -9.055    -0.180     (0)  
Cl            5.660e-01
   Cl-             5.660e-01   3.051e-01    -0.247    -0.516    -0.268     11.82
   HCl             5.262e-09   9.776e-09    -8.279    -8.010     0.269     24.16
H(0)          1.584e-26
   H2              7.919e-27   9.226e-27   -26.101   -26.035     0.066     20.83
K             1.060e-02
   K+              1.040e-02   5.522e-03    -1.983    -2.258    -0.275     11.69
   KSO4-           1.997e-04   1.573e-04    -3.700    -3.803    -0.104     21.27
   KHCO3           4.515e-06   5.223e-06    -5.345    -5.282     0.063     24.76
Mg            5.510e-02
   Mg+2            3.987e-02   6.946e-03    -1.399    -2.158    -0.759    -26.59
   MgSO4           1.402e-02   1.876e-02    -1.853    -1.727     0.126      4.26
   MgOH+           8.012e-04   5.064e-04    -3.096    -3.296    -0.199     (0)  
   MgHCO3+         3.855e-04   2.093e-04    -3.414    -3.679    -0.265      4.61
   Mg(SO4)2-2      2.364e-05   4.407e-06    -4.626    -5.356    -0.730     89.23
   MgCO3           3.483e-06   4.028e-06    -5.458    -5.395     0.063    -16.91
Na            4.850e-01
   Na+             4.737e-01   2.916e-01    -0.324    -0.535    -0.211      1.86
   NaSO4-          6.842e-03   4.156e-03    -2.165    -2.381    -0.216     10.28
   Na2SO4          2.056e-03   2.339e-03    -2.687    -2.631     0.056     23.78
   NaHCO3          3.311e-04   4.125e-04    -3.480    -3.385     0.095     21.03
O(0)          3.725e-13
   O2              1.862e-13   2.154e-13   -12.730   -12.667     0.063     36.42
S(-2)         0.000e+00
   HS-             0.000e+00   0.000e+00   -79.800   -80.084    -0.284     17.15
   H2S             0.000e+00   0.000e+00   -80.082   -80.019     0.063     51.16
   S-2             0.000e+00   0.000e+00   -82.632   -83.570    -0.937     (0)  
   (H2S)2          0.000e+00   0.000e+00  -160.942  -160.879     0.063     12.50
S(6)          2.930e-02
   MgSO4           1.402e-02   1.876e-02    -1.853    -1.727     0.126      4.26
   NaSO4-          6.842e-03   4.156e-03    -2.165    -2.381    -0.216     10.28
   SO4-2           3.422e-03   3.731e-04    -2.466    -3.428    -0.962     -1.61
   CaSO4           2.714e-03   2.896e-03    -2.566    -2.538     0.028     12.02
   Na2SO4          2.056e-03   2.339e-03    -2.687    -2.631     0.056     23.78
   KSO4-           1.997e-04   1.573e-04    -3.700    -3.803    -0.104     21.27
   Mg(SO4)2-2      2.364e-05   4.407e-06    -4.626    -5.356    -0.730     89.23
   HSO4-           5.711e-07   3.772e-07    -6.243    -6.423    -0.180     39.31
   CaHSO4+         8.010e-09   5.290e-09    -8.096    -8.277    -0.180     (0)  

------------------------------Saturation indices-------------------------------

  Phase               SI** log IAP   log K(433 K,   6 atm)

  Anhydrite         0.47     -6.36   -6.83  CaSO4
  Aragonite         0.23    -10.05  -10.28  CaCO3
  Arcanite         -6.32     -7.94   -1.63  K2SO4
  Calcite           0.48    -10.05  -10.53  CaCO3
  CH4(g)          -80.36    -83.23   -2.87  CH4
  CO2(g)           -1.06     -3.14   -2.08  CO2
  Dolomite          3.15    -19.32  -22.47  CaMg(CO3)2
  Epsomite         -4.75     -5.65   -0.90  MgSO4:7H2O
  Gypsum           -0.21     -6.38   -6.17  CaSO4:2H2O
  H2(g)           -23.12    -26.03   -2.92  H2
  H2O(g)            0.76     -0.01   -0.77  H2O
  H2S(g)          -78.46    -86.75   -8.29  H2S
  Halite           -2.70     -1.05    1.65  NaCl
  Hexahydrite      -4.26     -5.64   -1.38  MgSO4:6H2O
  Kieserite        -1.87     -5.59   -3.73  MgSO4:H2O
  Mirabilite      -15.88     -4.58   11.29  Na2SO4:10H2O
  O2(g)            -9.65    -12.67   -3.01  O2
  Sulfur          -60.25    -57.54    2.71  S
  Sylvite          -4.14     -2.77    1.36  KCl
  Thenardite       -3.00     -4.50   -1.49  Na2SO4

**For a gas, SI = log10(fugacity). Fugacity = pressure * phi / 1 atm.
  For ideal gases, phi = 1.

Reaction step 10.

Using solution 1.	
Using temperature 1.	

-----------------------------Solution composition------------------------------

	Elements           Molality       Moles

	C                 2.230e-03   2.230e-03
	Ca                1.070e-02   1.070e-02
	Cl                5.660e-01   5.660e-01
	K                 1.060e-02   1.060e-02
	Mg                5.510e-02   5.510e-02
	Na                4.850e-01   4.850e-01
	S                 2.930e-02   2.930e-02

----------------------------Description of solution----------------------------

                                       pH  =   6.507      Charge balance
                                       pe  =   4.963      Adjusted to redox equilibrium
      Specific Conductance (ÂµS/cm, 180Â°C)  = 190222
                          Density (g/cmÂł)  =   0.91540
                               Volume (L)  =   1.13213
                        Viscosity (mPa s)  =   0.16722
                        Activity of water  =   0.981
                 Ionic strength (mol/kgw)  =   6.286e-01
                       Mass of water (kg)  =   1.000e+00
                 Total alkalinity (eq/kg)  =   2.400e-03
                       Total CO2 (mol/kg)  =   2.230e-03
                         Temperature (Â°C)  = 180.00
                           Pressure (atm)  =  9.72
                  Electrical balance (eq)  =   2.000e-04
 Percent error, 100*(Cat-|An|)/(Cat+|An|)  =   0.02
                               Iterations  =   9
                                  Total H  = 1.110145e+02
                                  Total O  = 5.563011e+01

----------------------------Distribution of species----------------------------

                                               Log       Log       Log    mole V
   Species          Molality    Activity  Molality  Activity     Gamma   cmÂł/mol

   OH-             2.468e-05   1.235e-05    -4.608    -4.908    -0.301    -13.99
   H+              4.584e-07   3.112e-07    -6.339    -6.507    -0.168      0.00
   H2O             5.551e+01   9.808e-01     1.744    -0.008     0.000     20.31
C(-4)         0.000e+00
   CH4             0.000e+00   0.000e+00   -86.651   -86.589     0.063     52.85
C(4)          2.230e-03
   CO2             9.874e-04   1.086e-03    -3.006    -2.964     0.041     50.98
   HCO3-           5.442e-04   3.194e-04    -3.264    -3.496    -0.231     20.95
   MgHCO3+         3.399e-04   1.782e-04    -3.469    -3.749    -0.280      3.55
   NaHCO3          2.946e-04   3.666e-04    -3.531    -3.436     0.095     21.12
   CaHCO3+         5.786e-05   3.475e-05    -4.238    -4.459    -0.221     10.47
   KHCO3           3.445e-06   3.981e-06    -5.463    -5.400     0.063     24.90
   MgCO3           1.385e-06   1.601e-06    -5.858    -5.796     0.063    -16.80
   CaCO3           5.559e-07   6.425e-07    -6.255    -6.192     0.063    -14.13
   CO3-2           2.255e-07   2.558e-08    -6.647    -7.592    -0.945    -22.90
   (CO2)2          2.813e-08   3.095e-08    -7.551    -7.509     0.041    101.12
Ca            1.070e-02
   Ca+2            7.828e-03   1.017e-03    -2.106    -2.993    -0.886    -21.41
   CaSO4           2.814e-03   3.001e-03    -2.551    -2.523     0.028     12.24
   CaHCO3+         5.786e-05   3.475e-05    -4.238    -4.459    -0.221     10.47
   CaCO3           5.559e-07   6.425e-07    -6.255    -6.192     0.063    -14.13
   CaHSO4+         1.431e-08   9.191e-09    -7.844    -8.037    -0.192     (0)  
   CaOH+           8.285e-10   5.321e-10    -9.082    -9.274    -0.192     (0)  
Cl            5.660e-01
   Cl-             5.660e-01   2.941e-01    -0.247    -0.532    -0.284      8.22
   HCl             6.491e-09   1.202e-08    -8.188    -7.920     0.268     24.57
H(0)          5.029e-27
   H2              2.514e-27   2.927e-27   -26.600   -26.534     0.066     22.06
K             1.060e-02
   K+              1.040e-02   5.319e-03    -1.983    -2.274    -0.291     12.04
   KSO4-           2.002e-04   1.530e-04    -3.699    -3.815    -0.117     15.73
   KHCO3           3.445e-06   3.981e-06    -5.463    -5.400     0.063     24.90
Mg            5.510e-02
   Mg+2            3.942e-02   6.118e-03    -1.404    -2.213    -0.809    -28.67
   MgSO4           1.419e-02   1.895e-02    -1.848    -1.722     0.126      4.78
   MgOH+           1.133e-03   6.979e-04    -2.946    -3.156    -0.210     (0)  
   MgHCO3+         3.399e-04   1.782e-04    -3.469    -3.749    -0.280      3.55
   Mg(SO4)2-2      1.590e-05   2.690e-06    -4.798    -5.570    -0.772     92.53
   MgCO3           1.385e-06   1.601e-06    -5.858    -5.796     0.063    -16.80
Na            4.850e-01
   Na+             4.722e-01   2.806e-01    -0.326    -0.552    -0.226      2.17
   NaSO4-          6.072e-03   3.550e-03    -2.217    -2.450    -0.233      3.71
   Na2SO4          3.220e-03   3.660e-03    -2.492    -2.437     0.056     22.09
   NaHCO3          2.946e-04   3.666e-04    -3.531    -3.436     0.095     21.12
O(0)          3.072e-10
   O2              1.536e-10   1.775e-10    -9.814    -9.751     0.063     37.64
S(-2)         0.000e+00
   H2S             0.000e+00   0.000e+00   -82.942   -82.879     0.063     53.22
   HS-             0.000e+00   0.000e+00   -82.946   -83.246    -0.301     14.42
   S-2             0.000e+00   0.000e+00   -85.632   -86.622    -0.990     (0)  
   (H2S)2          0.000e+00   0.000e+00  -166.710  -166.647     0.063      5.60
S(6)          2.930e-02
   MgSO4           1.419e-02   1.895e-02    -1.848    -1.722     0.126      4.78
[...]
   CaHCO3+         3.505e-09   2.231e-09    -8.455    -8.651    -0.196     10.03
   (CO2)2          2.832e-11   4.157e-11   -10.548   -10.381     0.167     68.75
Ca            4.069e-02
   Ca+2            3.641e-02   1.202e-02    -1.439    -1.920    -0.481    -15.69
   CaSO4           4.165e-03   5.395e-03    -2.380    -2.268     0.112      7.22
   CaCO3           1.139e-04   2.037e-04    -3.943    -3.691     0.253    -14.60
   CaOH+           1.586e-07   1.878e-07    -6.800    -6.726     0.073     (0)  
   CaHCO3+         3.505e-09   2.231e-09    -8.455    -8.651    -0.196     10.03
   CaHSO4+         3.758e-10   4.449e-10    -9.425    -9.352     0.073     (0)  
Cl            2.152e+00
   Cl-             2.152e+00   1.247e+00     0.333     0.096    -0.237     19.43
   HCl             3.559e-10   4.227e-09    -9.449    -8.374     1.075     20.36
H(0)          1.759e-39
   H2              8.793e-40   1.619e-39   -39.056   -38.791     0.265     14.99
K             4.031e-02
   K+              3.970e-02   2.239e-02    -1.401    -1.650    -0.249     10.58
   KSO4-           5.921e-04   1.096e-03    -3.228    -2.960     0.268     46.37
   KHCO3           1.184e-05   2.118e-05    -4.927    -4.674     0.253     21.42
Mg            2.095e-01
   Mg+2            1.803e-01   8.385e-02    -0.744    -1.076    -0.332    -19.35
   MgSO4           2.209e-02   7.066e-02    -1.656    -1.151     0.505     -0.40
   MgHCO3+         3.802e-03   2.078e-03    -2.420    -2.682    -0.262      5.93
   Mg(SO4)2-2      2.834e-03   7.491e-04    -2.548    -3.125    -0.578     53.11
   MgCO3           4.515e-04   8.076e-04    -3.345    -3.093     0.253    -17.09
   MgOH+           4.384e-05   2.867e-05    -4.358    -4.543    -0.184     (0)  
Na            1.844e+00
   Na+             1.797e+00   1.594e+00     0.254     0.203    -0.052      0.33
   NaSO4-          4.677e-02   4.508e-02    -1.330    -1.346    -0.016     27.23
   NaHCO3          6.936e-04   1.669e-03    -3.159    -2.778     0.381     17.66
   Na2SO4          2.095e-05   3.504e-05    -4.679    -4.455     0.223     47.96
O(0)          1.589e-15
   O2              7.946e-16   1.421e-15   -15.100   -14.847     0.253     30.40
S(-2)         0.000e+00
   HS-             0.000e+00   0.000e+00  -118.993  -119.280    -0.287     22.07
   H2S             0.000e+00   0.000e+00  -120.598  -120.345     0.253     36.27
   S-2             0.000e+00   0.000e+00  -123.293  -124.191    -0.898     (0)  
   (H2S)2          0.000e+00   0.000e+00  -242.221  -241.968     0.253     30.09
S(6)          1.114e-01
   NaSO4-          4.677e-02   4.508e-02    -1.330    -1.346    -0.016     27.23
   SO4-2           3.211e-02   3.218e-03    -1.493    -2.492    -0.999     22.61
   MgSO4           2.209e-02   7.066e-02    -1.656    -1.151     0.505     -0.40
   CaSO4           4.165e-03   5.395e-03    -2.380    -2.268     0.112      7.22
   Mg(SO4)2-2      2.834e-03   7.491e-04    -2.548    -3.125    -0.578     53.11
   KSO4-           5.921e-04   1.096e-03    -3.228    -2.960     0.268     46.37
   Na2SO4          2.095e-05   3.504e-05    -4.679    -4.455     0.223     47.96
   HSO4-           2.601e-09   3.079e-09    -8.585    -8.512     0.073     41.53
   CaHSO4+         3.758e-10   4.449e-10    -9.425    -9.352     0.073     (0)  

------------------------------Saturation indices-------------------------------

  Phase               SI** log IAP   log K(298 K,   1 atm)

  Anhydrite        -0.10     -4.41   -4.31  CaSO4
  Aragonite         1.42     -6.92   -8.34  CaCO3
  Arcanite         -3.91     -5.79   -1.88  K2SO4
  Calcite           1.53     -6.92   -8.45  CaCO3
  CH4(g)         -119.60   -122.40   -2.80  CH4
  CO2(g)           -2.83     -4.30   -1.47  CO2
  Dolomite          4.10    -12.99  -17.08  CaMg(CO3)2
  Epsomite         -2.06     -3.80   -1.74  MgSO4:7H2O
  Gypsum            0.07     -4.48   -4.55  CaSO4:2H2O
  H2(g)           -35.69    -38.79   -3.10  H2
  H2O(g)           -1.54     -0.03    1.50  H2O
  H2S(g)         -119.35   -127.29   -7.94  H2S
  Halite           -1.27      0.30    1.57  NaCl
  Hexahydrite      -2.20     -3.77   -1.57  MgSO4:6H2O
  Kieserite        -2.44     -3.60   -1.16  MgSO4:H2O
  Mirabilite       -1.71     -2.42   -0.71  Na2SO4:10H2O
  O2(g)           -11.95    -14.85   -2.89  O2
  Sulfur          -89.59    -84.70    4.88  S
  Sylvite          -2.45     -1.55    0.90  KCl
  Thenardite       -2.74     -2.09    0.65  Na2SO4

**For a gas, SI = log10(fugacity). Fugacity = pressure * phi / 1 atm.
  For ideal gases, phi = 1.

Reaction step 10.

Using solution 1.	
Using reaction 1.	

Reaction 1.	

	  4.545e+01 moles of the following reaction have been added:

	                 Relative
	Reactant            moles

	H2O                 -1.00000

	                 Relative
	Element             moles
	H                   -2.00000
	O                   -1.00000

-----------------------------Solution composition------------------------------

	Elements           Molality       Moles

	C                 1.231e-02   2.230e-03
	Ca                5.909e-02   1.070e-02
	Cl                3.126e+00   5.660e-01
	K                 5.853e-02   1.060e-02
	Mg                3.043e-01   5.510e-02
	Na                2.678e+00   4.850e-01
	S                 1.618e-01   2.930e-02

----------------------------Description of solution----------------------------

                                       pH  =   7.992      Charge balance
                                       pe  =   9.900      Adjusted to redox equilibrium
      Specific Conductance (ÂµS/cm,  25Â°C)  = 183910
                          Density (g/cmÂł)  =   1.12752
                               Volume (L)  =   0.19285
                        Viscosity (mPa s)  =   1.36379
                        Activity of water  =   0.893
                 Ionic strength (mol/kgw)  =   3.652e+00
                       Mass of water (kg)  =   1.811e-01
                 Total alkalinity (eq/kg)  =   1.325e-02
                       Total CO2 (mol/kg)  =   1.231e-02
                         Temperature (Â°C)  =  25.00
                  Electrical balance (eq)  =   2.000e-04
 Percent error, 100*(Cat-|An|)/(Cat+|An|)  =   0.02
                               Iterations  =  18
                                  Total H  = 2.010540e+01
                                  Total O  = 1.017556e+01

----------------------------Distribution of species----------------------------

                                               Log       Log       Log    mole V
   Species          Molality    Activity  Molality  Activity     Gamma   cmÂł/mol

   OH-             1.791e-06   8.878e-07    -5.747    -6.052    -0.305      1.65
   H+              1.427e-08   1.019e-08    -7.845    -7.992    -0.147      0.00
   H2O             5.551e+01   8.934e-01     1.744    -0.049     0.000     18.07
C(-4)         0.000e+00
   CH4             0.000e+00   0.000e+00  -123.332  -122.966     0.365     35.46
C(4)          1.231e-02
   MgHCO3+         7.731e-03   4.080e-03    -2.112    -2.389    -0.278      5.96
   HCO3-           2.942e-03   1.884e-03    -2.531    -2.725    -0.194     37.39
   NaHCO3          7.243e-04   2.579e-03    -3.140    -2.589     0.552     17.66
   MgCO3           6.607e-04   1.532e-03    -3.180    -2.815     0.365    -17.09
   CaCO3           1.475e-04   3.420e-04    -3.831    -3.466     0.365    -14.60
   CO3-2           6.705e-05   8.675e-06    -4.174    -5.062    -0.888      5.22
   CO2             2.772e-05   4.829e-05    -4.557    -4.316     0.241     34.79
   KHCO3           1.183e-05   2.742e-05    -4.927    -4.562     0.365     21.42
   CaHCO3+         6.208e-09   3.877e-09    -8.207    -8.412    -0.204     10.05
   (CO2)2          2.176e-11   3.792e-11   -10.662   -10.421     0.241     68.75
Ca            5.909e-02
   Ca+2            5.127e-02   2.347e-02    -1.290    -1.630    -0.339    -15.21
   CaSO4           7.671e-03   1.115e-02    -2.115    -1.953     0.163      7.22
   CaCO3           1.475e-04   3.420e-04    -3.831    -3.466     0.365    -14.60
   CaOH+           2.040e-07   3.416e-07    -6.690    -6.466     0.224     (0)  
   CaHCO3+         6.208e-09   3.877e-09    -8.207    -8.412    -0.204     10.05
   CaHSO4+         5.683e-10   9.519e-10    -9.245    -9.021     0.224     (0)  
Cl            3.126e+00
   Cl-             3.126e+00   1.819e+00     0.495     0.260    -0.235     19.69
   HCl             1.780e-10   6.381e-09    -9.750    -8.195     1.554     20.36
H(0)          9.614e-40
   H2              4.807e-40   1.163e-39   -39.318   -38.935     0.383     14.99
K             5.853e-02
   K+              5.795e-02   3.258e-02    -1.237    -1.487    -0.250     11.09
   KSO4-           5.698e-04   1.689e-03    -3.244    -2.772     0.472     50.59
   KHCO3           1.183e-05   2.742e-05    -4.927    -4.562     0.365     21.42
Mg            3.043e-01
   Mg+2            2.585e-01   1.851e-01    -0.588    -0.733    -0.145    -18.82
   MgSO4           3.071e-02   1.651e-01    -1.513    -0.782     0.730     -0.40
   MgHCO3+         7.731e-03   4.080e-03    -2.112    -2.389    -0.278      5.96
   Mg(SO4)2-2      6.590e-03   1.853e-03    -2.181    -2.732    -0.551     54.42
   MgCO3           6.607e-04   1.532e-03    -3.180    -2.815     0.365    -17.09
   MgOH+           9.167e-05   5.894e-05    -4.038    -4.230    -0.192     (0)  
Na            2.678e+00
   Na+             2.609e+00   2.769e+00     0.417     0.442     0.026      0.67
   NaSO4-          6.789e-02   8.288e-02    -1.168    -1.082     0.087     29.63
   NaHCO3          7.243e-04   2.579e-03    -3.140    -2.589     0.552     17.66
   Na2SO4          5.317e-05   1.119e-04    -4.274    -3.951     0.323     47.96
O(0)          2.211e-15
   O2              1.105e-15   2.563e-15   -14.956   -14.591     0.365     30.40
S(-2)         0.000e+00
   HS-             0.000e+00   0.000e+00  -119.447  -119.752    -0.305     22.38
   H2S             0.000e+00   0.000e+00  -121.168  -120.803     0.365     36.27
   S-2             0.000e+00   0.000e+00  -123.736  -124.678    -0.942     (0)  
   (H2S)2          0.000e+00   0.000e+00  -243.249  -242.883     0.365     30.09
S(6)          1.618e-01
   NaSO4-          6.789e-02   8.288e-02    -1.168    -1.082     0.087     29.63
   SO4-2           4.173e-02   3.407e-03    -1.380    -2.468    -1.088     25.76
   MgSO4           3.071e-02   1.651e-01    -1.513    -0.782     0.730     -0.40
   CaSO4           7.671e-03   1.115e-02    -2.115    -1.953     0.163      7.22
   Mg(SO4)2-2      6.590e-03   1.853e-03    -2.181    -2.732    -0.551     54.42
   KSO4-           5.698e-04   1.689e-03    -3.244    -2.772     0.472     50.59
   Na2SO4          5.317e-05   1.119e-04    -4.274    -3.951     0.323     47.96
   HSO4-           2.014e-09   3.374e-09    -8.696    -8.472     0.224     41.74
   CaHSO4+         5.683e-10   9.519e-10    -9.245    -9.021     0.224     (0)  

------------------------------Saturation indices-------------------------------

  Phase               SI** log IAP   log K(298 K,   1 atm)

  Anhydrite         0.22     -4.10   -4.31  CaSO4
  Aragonite         1.64     -6.69   -8.34  CaCO3
  Arcanite         -3.56     -5.44   -1.88  K2SO4
  Calcite           1.76     -6.69   -8.45  CaCO3
  CH4(g)         -120.16   -122.97   -2.80  CH4
  CO2(g)           -2.85     -4.32   -1.47  CO2
  Dolomite          4.60    -12.49  -17.08  CaMg(CO3)2
  Epsomite         -1.80     -3.54   -1.74  MgSO4:7H2O
  Gypsum            0.35     -4.20   -4.55  CaSO4:2H2O
  H2(g)           -35.84    -38.93   -3.10  H2
  H2O(g)           -1.55     -0.05    1.50  H2O
  H2S(g)         -119.81   -127.74   -7.94  H2S
  Halite           -0.87      0.70    1.57  NaCl
  Hexahydrite      -1.93     -3.49   -1.57  MgSO4:6H2O
  Kieserite        -2.09     -3.25   -1.16  MgSO4:H2O
  Mirabilite       -1.37     -2.07   -0.71  Na2SO4:10H2O
  O2(g)           -11.70    -14.59   -2.89  O2
  Sulfur          -89.90    -85.02    4.88  S
  Sylvite          -2.13     -1.23    0.90  KCl
  Thenardite       -2.23     -1.58    0.65  Na2SO4

**For a gas, SI = log10(fugacity). Fugacity = pressure * phi / 1 atm.
  For ideal gases, phi = 1.

Reaction step 11.

Using solution 1.	
Using reaction 1.	

Reaction 1.	

	  5.000e+01 moles of the following reaction have been added:

	                 Relative
	Reactant            moles

	H2O                 -1.00000

	                 Relative
	Element             moles
	H                   -2.00000
	O                   -1.00000

-----------------------------Solution composition------------------------------

	Elements           Molality       Moles

	C                 2.248e-02   2.230e-03
	Ca                1.079e-01   1.070e-02
	Cl                5.706e+00   5.660e-01
	K                 1.069e-01   1.060e-02
	Mg                5.554e-01   5.510e-02
	Na                4.889e+00   4.850e-01
	S                 2.954e-01   2.930e-02

----------------------------Description of solution----------------------------

                                       pH  =   8.054      Charge balance
                                       pe  =  10.013      Adjusted to redox equilibrium
      Specific Conductance (ÂµS/cm,  25Â°C)  = 212967
                          Density (g/cmÂł)  =   1.21506
                               Volume (L)  =   0.11156
                        Viscosity (mPa s)  =   2.11900
                        Activity of water  =   0.806
                 Ionic strength (mol/kgw)  =   6.627e+00
                       Mass of water (kg)  =   9.920e-02
                 Total alkalinity (eq/kg)  =   2.419e-02
                       Total CO2 (mol/kg)  =   2.248e-02
                         Temperature (Â°C)  =  25.00
                  Electrical balance (eq)  =   2.000e-04
 Percent error, 100*(Cat-|An|)/(Cat+|An|)  =   0.02
                               Iterations  =  21
                                  Total H  = 1.101449e+01
                                  Total O  = 5.630106e+00

----------------------------Distribution of species----------------------------

                                               Log       Log       Log    mole V
   Species          Molality    Activity  Molality  Activity     Gamma   cmÂł/mol

   OH-             1.980e-06   9.226e-07    -5.703    -6.035    -0.332      5.51
   H+              1.256e-08   8.839e-09    -7.901    -8.054    -0.152      0.00
   H2O             5.551e+01   8.057e-01     1.744    -0.094     0.000     18.07
C(-4)         0.000e+00
   CH4             0.000e+00   0.000e+00  -125.351  -124.688     0.663     35.46
C(4)          2.248e-02
   MgHCO3+         1.988e-02   9.975e-03    -1.701    -2.001    -0.300      6.00
   HCO3-           1.144e-03   7.488e-04    -2.941    -3.126    -0.184     45.08
   MgCO3           9.385e-04   4.316e-03    -3.028    -2.365     0.663    -17.09
   NaHCO3          3.133e-04   3.138e-03    -3.504    -2.503     1.001     17.66
   CaCO3           1.491e-04   6.856e-04    -3.827    -3.164     0.663    -14.60
   CO3-2           3.488e-05   3.973e-06    -4.457    -5.401    -0.943      9.03
   CO2             6.747e-06   1.847e-05    -5.171    -4.734     0.437     34.79
   KHCO3           4.541e-06   2.088e-05    -5.343    -4.680     0.663     21.42
   CaHCO3+         1.109e-08   6.744e-09    -7.955    -8.171    -0.216     10.08
   (CO2)2          2.026e-12   5.546e-12   -11.693   -11.256     0.437     68.75
Ca            1.079e-01
   Ca+2            8.372e-02   1.027e-01    -1.077    -0.988     0.089    -14.03
   CaSO4           2.400e-02   4.732e-02    -1.620    -1.325     0.295      7.22
   CaCO3           1.491e-04   6.856e-04    -3.827    -3.164     0.663    -14.60
   CaOH+           3.506e-07   1.554e-06    -6.455    -5.809     0.647     (0)  
   CaHCO3+         1.109e-08   6.744e-09    -7.955    -8.171    -0.216     10.08
   CaHSO4+         7.909e-10   3.505e-09    -9.102    -8.455     0.647     (0)  
Cl            5.706e+00
   Cl-             5.706e+00   3.518e+00     0.756     0.546    -0.210     20.18
   HCl             1.620e-11   1.071e-08   -10.790    -7.970     2.820     20.36
H(0)          2.099e-40
   H2              1.050e-40   5.210e-40   -39.979   -39.283     0.696     14.99
K             1.069e-01
   K+              1.066e-01   6.243e-02    -0.972    -1.205    -0.232     12.40
   KSO4-           2.974e-04   3.137e-03    -3.527    -2.503     1.023     58.70
   KHCO3           4.541e-06   2.088e-05    -5.343    -4.680     0.663     21.42
Mg            5.554e-01
   Mg+2            4.575e-01   1.138e+00    -0.340     0.056     0.396    -17.50
   MgSO4           4.654e-02   9.844e-01    -1.332    -0.007     1.325     -0.40
   Mg(SO4)2-2      3.001e-02   1.071e-02    -1.523    -1.970    -0.448     56.59
   MgHCO3+         1.988e-02   9.975e-03    -1.701    -2.001    -0.300      6.00
   MgCO3           9.385e-04   4.316e-03    -3.028    -2.365     0.663    -17.09
   MgOH+           6.001e-04   3.768e-04    -3.222    -3.424    -0.202     (0)  
Na            4.889e+00
   Na+             4.786e+00   8.478e+00     0.680     0.928     0.248      1.39
   NaSO4-          1.028e-01   2.459e-01    -0.988    -0.609     0.379     34.69
   NaHCO3          3.133e-04   3.138e-03    -3.504    -2.503     1.001     17.66
   Na2SO4          2.635e-04   1.017e-03    -3.579    -2.993     0.586     47.96
O(0)          4.514e-15
   O2              2.257e-15   1.038e-14   -14.646   -13.984     0.663     30.40
S(-2)         0.000e+00
   HS-             0.000e+00   0.000e+00  -120.711  -121.042    -0.332     23.00
   H2S             0.000e+00   0.000e+00  -122.817  -122.154     0.663     36.27
   S-2             0.000e+00   0.000e+00  -124.902  -125.907    -1.005     (0)  
   (H2S)2          0.000e+00   0.000e+00  -246.249  -245.586     0.663     30.09
S(6)          2.954e-01
   NaSO4-          1.028e-01   2.459e-01    -0.988    -0.609     0.379     34.69
   SO4-2           6.144e-02   3.302e-03    -1.212    -2.481    -1.270     33.74
   MgSO4           4.654e-02   9.844e-01    -1.332    -0.007     1.325     -0.40
   Mg(SO4)2-2      3.001e-02   1.071e-02    -1.523    -1.970    -0.448     56.59
   CaSO4           2.400e-02   4.732e-02    -1.620    -1.325     0.295      7.22
   KSO4-           2.974e-04   3.137e-03    -3.527    -2.503     1.023     58.70
   Na2SO4          2.635e-04   1.017e-03    -3.579    -2.993     0.586     47.96
   CaHSO4+         7.909e-10   3.505e-09    -9.102    -8.455     0.647     (0)  
   HSO4-           6.404e-10   2.838e-09    -9.194    -8.547     0.647     42.11

------------------------------Saturation indices-------------------------------

  Phase               SI** log IAP   log K(298 K,   1 atm)

  Anhydrite         0.84     -3.47   -4.31  CaSO4
  Aragonite         1.95     -6.39   -8.34  CaCO3
  Arcanite         -3.01     -4.89   -1.88  K2SO4
  Calcite           2.06     -6.39   -8.45  CaCO3
  CH4(g)         -121.89   -124.69   -2.80  CH4
  CO2(g)           -3.27     -4.73   -1.47  CO2
  Dolomite          5.35    -11.73  -17.08  CaMg(CO3)2
  Epsomite         -1.34     -3.08   -1.74  MgSO4:7H2O
  Gypsum            0.89     -3.66   -4.55  CaSO4:2H2O
  H2(g)           -36.18    -39.28   -3.10  H2
  H2O(g)           -1.60     -0.09    1.50  H2O
  H2S(g)         -121.16   -129.10   -7.94  H2S
  Halite           -0.10      1.47    1.57  NaCl
  Hexahydrite      -1.42     -2.99   -1.57  MgSO4:6H2O
  Kieserite        -1.36     -2.52   -1.16  MgSO4:H2O
  Mirabilite       -0.86     -1.56   -0.71  Na2SO4:10H2O
  O2(g)           -11.09    -13.98   -2.89  O2
  Sulfur          -90.90    -86.02    4.88  S
  Sylvite          -1.56     -0.66    0.90  KCl
  Thenardite       -1.27     -0.62    0.65  Na2SO4

**For a gas, SI = log10(fugacity). Fugacity = pressure * phi / 1 atm.
  For ideal gases, phi = 1.

------------------
End of simulation.
------------------

------------------------------------
Reading input data for simulation 3.
------------------------------------

