WARNING: Database file from DATABASE keyword is used; command line argument ignored.
   Input file: solution_s
  Output file: solution_s.out
Database file: ../database/phreeqc.dat

------------------
Reading data base.
------------------

	SOLUTION_MASTER_SPECIES
	SOLUTION_SPECIES
	PHASES
	GAS_BINARY_PARAMETERS
	EXCHANGE_MASTER_SPECIES
	EXCHANGE_SPECIES
	SURFACE_MASTER_SPECIES
	SURFACE_SPECIES
	MEAN_GAMMAS
	RATES
	END
------------------------------------
Reading input data for simulation 1.
------------------------------------

	DATABASE ../database/phreeqc.dat
	SELECTED_OUTPUT 101
	    file                 solution_s_101.sel
	USER_PUNCH 101
	    headings Mu SC
	    start
	10 PUNCH STR_F$(MU, 20, 12)
	20 PUNCH STR_F$(SC, 20, 10)
	    end
	SOLUTION_S
	temp	25
	dens	1
	units	mmol/kgw
	redox 	pe
	pe	4
	ph	7
	isotope_uncertainty 13C 1
	water	1.0
	Number	13C	pH	Ca	Mg	Na	K	S(6)	Cl	Alkalinity	description
										mg/kgw as HCO3
	10-11	10	7	1	1	1	1	2	1	61          	soln 10-11
	1	20	7	1	1	1	1	2	1	61          	soln 1
	END
-------------------------------------------
Beginning of initial solution calculations.
-------------------------------------------

Initial solution 1.	 soln 1 

-----------------------------Solution composition------------------------------

	Elements           Molality       Moles

	Alkalinity        9.997e-04   9.997e-04
	Ca                1.000e-03   1.000e-03
	Cl                1.000e-03   1.000e-03
	K                 1.000e-03   1.000e-03
	Mg                1.000e-03   1.000e-03
	Na                1.000e-03   1.000e-03
	S(6)              2.000e-03   2.000e-03

----------------------------Description of solution----------------------------

                                       pH  =   7.000    
                                       pe  =   4.000    
      Specific Conductance (µS/cm,  25°C)  = 655
                          Density (g/cm³)  =   0.99742
                               Volume (L)  =   1.00302
                        Viscosity (mPa s)  =   0.89218
                        Activity of water  =   1.000
                 Ionic strength (mol/kgw)  =   8.845e-03
                       Mass of water (kg)  =   1.000e+00
                    Total carbon (mol/kg)  =   1.201e-03
                       Total CO2 (mol/kg)  =   1.201e-03
                         Temperature (°C)  =  25.00
                  Electrical balance (eq)  =   3.130e-07
 Percent error, 100*(Cat-|An|)/(Cat+|An|)  =   0.00
                               Iterations  =   7
                                  Total H  = 1.110134e+02
                                  Total O  = 5.551762e+01

----------------------------Distribution of species----------------------------

                                               Log       Log       Log    mole V
   Species          Molality    Activity  Molality  Activity     Gamma   cm³/mol

   OH-             1.118e-07   1.012e-07    -6.952    -6.995    -0.043     -4.04
   H+              1.090e-07   1.000e-07    -6.962    -7.000    -0.038      0.00
   H2O             5.551e+01   9.999e-01     1.744    -0.000     0.000     18.07
C(4)          1.201e-03
   HCO3-           9.898e-04   9.005e-04    -3.004    -3.045    -0.041     24.69
   CO2             2.022e-04   2.025e-04    -3.694    -3.694     0.001     34.79
   MgHCO3+         6.572e-06   5.957e-06    -5.182    -5.225    -0.043      5.53
   CO3-2           6.167e-07   4.223e-07    -6.210    -6.374    -0.164     -4.38
   CaCO3           4.361e-07   4.370e-07    -6.360    -6.360     0.001    -14.60
   NaHCO3          3.987e-07   4.000e-07    -6.399    -6.398     0.001     17.66
   KHCO3           3.571e-07   3.578e-07    -6.447    -6.446     0.001     21.42
   MgCO3           2.274e-07   2.278e-07    -6.643    -6.642     0.001    -17.09
   (CO2)2          6.657e-10   6.666e-10    -9.177    -9.176     0.001     68.75
   CaHCO3+         5.338e-11   4.863e-11   -10.273   -10.313    -0.040      9.72
Ca            1.000e-03
   Ca+2            9.001e-04   6.160e-04    -3.046    -3.210    -0.165    -17.94
   CaSO4           9.948e-05   9.957e-05    -4.002    -4.002     0.000      7.22
   CaCO3           4.361e-07   4.370e-07    -6.360    -6.360     0.001    -14.60
   CaOH+           1.127e-09   1.022e-09    -8.948    -8.991    -0.042     (0)  
   CaHSO4+         9.201e-11   8.344e-11   -10.036   -10.079    -0.042     (0)  
   CaHCO3+         5.338e-11   4.863e-11   -10.273   -10.313    -0.040      9.72
Cl            1.000e-03
   Cl-             1.000e-03   9.058e-04    -3.000    -3.043    -0.043     18.13
   HCl             3.093e-11   3.120e-11   -10.510   -10.506     0.004     20.36
H(0)          1.413e-25
   H2              7.064e-26   7.079e-26   -25.151   -25.150     0.001     14.99
K             1.000e-03
   K+              9.825e-04   8.895e-04    -3.008    -3.051    -0.043      9.06
   KSO4-           1.718e-05   1.569e-05    -4.765    -4.805    -0.039     20.49
   KHCO3           3.571e-07   3.578e-07    -6.447    -6.446     0.001     21.42
Mg            1.000e-03
   Mg+2            8.214e-04   5.654e-04    -3.085    -3.248    -0.162    -21.63
   MgSO4           1.708e-04   1.715e-04    -3.767    -3.766     0.002     -0.40
   MgHCO3+         6.572e-06   5.957e-06    -5.182    -5.225    -0.043      5.53
   Mg(SO4)2-2      9.407e-07   6.548e-07    -6.027    -6.184    -0.157     37.68
   MgCO3           2.274e-07   2.278e-07    -6.643    -6.642     0.001    -17.09
   MgOH+           2.250e-08   2.052e-08    -7.648    -7.688    -0.040     (0)  
Na            1.000e-03
   Na+             9.895e-04   8.986e-04    -3.005    -3.046    -0.042     -1.39
   NaSO4-          1.008e-05   9.148e-06    -4.996    -5.039    -0.042     16.95
   NaHCO3          3.987e-07   4.000e-07    -6.399    -6.398     0.001     17.66
   Na2SO4          4.001e-12   4.008e-12   -11.398   -11.397     0.001     47.96
O(0)          0.000e+00
   O2              0.000e+00   0.000e+00   -42.064   -42.063     0.001     30.40
S(6)          2.000e-03
   SO4-2           1.701e-03   1.159e-03    -2.769    -2.936    -0.167     14.67
   MgSO4           1.708e-04   1.715e-04    -3.767    -3.766     0.002     -0.40
   CaSO4           9.948e-05   9.957e-05    -4.002    -4.002     0.000      7.22
   KSO4-           1.718e-05   1.569e-05    -4.765    -4.805    -0.039     20.49
   NaSO4-          1.008e-05   9.148e-06    -4.996    -5.039    -0.042     16.95
   Mg(SO4)2-2      9.407e-07   6.548e-07    -6.027    -6.184    -0.157     37.68
   HSO4-           1.243e-08   1.127e-08    -7.906    -7.948    -0.042     40.34
   CaHSO4+         9.201e-11   8.344e-11   -10.036   -10.079    -0.042     (0)  
   Na2SO4          4.001e-12   4.008e-12   -11.398   -11.397     0.001     47.96

------------------------------Saturation indices-------------------------------

  Phase               SI** log IAP   log K(298 K,   1 atm)

  Anhydrite        -1.83     -6.15   -4.31  CaSO4
  Aragonite        -1.25     -9.58   -8.34  CaCO3
  Arcanite         -7.16     -9.04   -1.88  K2SO4
  Calcite          -1.14     -9.58   -8.45  CaCO3
  CO2(g)           -2.23     -3.69   -1.47  CO2
  Dolomite         -2.12    -19.21  -17.08  CaMg(CO3)2
  Epsomite         -4.45     -6.18   -1.74  MgSO4:7H2O
  Gypsum           -1.60     -6.15   -4.55  CaSO4:2H2O
  H2(g)           -22.05    -25.15   -3.10  H2
  H2O(g)           -1.50     -0.00    1.50  H2O
  Halite           -7.66     -6.09    1.57  NaCl
  Hexahydrite      -4.62     -6.18   -1.57  MgSO4:6H2O
  Kieserite        -5.02     -6.18   -1.16  MgSO4:H2O
  Mirabilite       -8.32     -9.03   -0.71  Na2SO4:10H2O
  O2(g)           -39.17    -42.06   -2.89  O2
  Sylvite          -6.99     -6.09    0.90  KCl
  Thenardite       -9.68     -9.03    0.65  Na2SO4

**For a gas, SI = log10(fugacity). Fugacity = pressure * phi / 1 atm.
  For ideal gases, phi = 1.

Initial solution 10.	 soln 10-11 

-----------------------------Solution composition------------------------------

	Elements           Molality       Moles

	Alkalinity        9.997e-04   9.997e-04
	Ca                1.000e-03   1.000e-03
	Cl                1.000e-03   1.000e-03
	K                 1.000e-03   1.000e-03
	Mg                1.000e-03   1.000e-03
	Na                1.000e-03   1.000e-03
	S(6)              2.000e-03   2.000e-03

----------------------------Description of solution----------------------------

                                       pH  =   7.000    
                                       pe  =   4.000    
      Specific Conductance (µS/cm,  25°C)  = 655
                          Density (g/cm³)  =   0.99742
                               Volume (L)  =   1.00302
                        Viscosity (mPa s)  =   0.89218
                        Activity of water  =   1.000
                 Ionic strength (mol/kgw)  =   8.845e-03
                       Mass of water (kg)  =   1.000e+00
                    Total carbon (mol/kg)  =   1.201e-03
                       Total CO2 (mol/kg)  =   1.201e-03
                         Temperature (°C)  =  25.00
                  Electrical balance (eq)  =   3.130e-07
 Percent error, 100*(Cat-|An|)/(Cat+|An|)  =   0.00
                               Iterations  =   7 (14 overall)
                                  Total H  = 1.110134e+02
                                  Total O  = 5.551762e+01

----------------------------Distribution of species----------------------------

                                               Log       Log       Log    mole V
   Species          Molality    Activity  Molality  Activity     Gamma   cm³/mol

   OH-             1.118e-07   1.012e-07    -6.952    -6.995    -0.043     -4.04
   H+              1.090e-07   1.000e-07    -6.962    -7.000    -0.038      0.00
   H2O             5.551e+01   9.999e-01     1.744    -0.000     0.000     18.07
C(4)          1.201e-03
   HCO3-           9.898e-04   9.005e-04    -3.004    -3.045    -0.041     24.69
   CO2             2.022e-04   2.025e-04    -3.694    -3.694     0.001     34.79
   MgHCO3+         6.572e-06   5.957e-06    -5.182    -5.225    -0.043      5.53
   CO3-2           6.167e-07   4.223e-07    -6.210    -6.374    -0.164     -4.38
   CaCO3           4.361e-07   4.370e-07    -6.360    -6.360     0.001    -14.60
   NaHCO3          3.987e-07   4.000e-07    -6.399    -6.398     0.001     17.66
   KHCO3           3.571e-07   3.578e-07    -6.447    -6.446     0.001     21.42
   MgCO3           2.274e-07   2.278e-07    -6.643    -6.642     0.001    -17.09
   (CO2)2          6.657e-10   6.666e-10    -9.177    -9.176     0.001     68.75
   CaHCO3+         5.338e-11   4.863e-11   -10.273   -10.313    -0.040      9.72
Ca            1.000e-03
   Ca+2            9.001e-04   6.160e-04    -3.046    -3.210    -0.165    -17.94
   CaSO4           9.948e-05   9.957e-05    -4.002    -4.002     0.000      7.22
   CaCO3           4.361e-07   4.370e-07    -6.360    -6.360     0.001    -14.60
   CaOH+           1.127e-09   1.022e-09    -8.948    -8.991    -0.042     (0)  
   CaHSO4+         9.201e-11   8.344e-11   -10.036   -10.079    -0.042     (0)  
   CaHCO3+         5.338e-11   4.863e-11   -10.273   -10.313    -0.040      9.72
Cl            1.000e-03
   Cl-             1.000e-03   9.058e-04    -3.000    -3.043    -0.043     18.13
   HCl             3.093e-11   3.120e-11   -10.510   -10.506     0.004     20.36
H(0)          1.413e-25
   H2              7.064e-26   7.079e-26   -25.151   -25.150     0.001     14.99
K             1.000e-03
   K+              9.825e-04   8.895e-04    -3.008    -3.051    -0.043      9.06
   KSO4-           1.718e-05   1.569e-05    -4.765    -4.805    -0.039     20.49
   KHCO3           3.571e-07   3.578e-07    -6.447    -6.446     0.001     21.42
Mg            1.000e-03
   Mg+2            8.214e-04   5.654e-04    -3.085    -3.248    -0.162    -21.63
   MgSO4           1.708e-04   1.715e-04    -3.767    -3.766     0.002     -0.40
   MgHCO3+         6.572e-06   5.957e-06    -5.182    -5.225    -0.043      5.53
   Mg(SO4)2-2      9.407e-07   6.548e-07    -6.027    -6.184    -0.157     37.68
   MgCO3           2.274e-07   2.278e-07    -6.643    -6.642     0.001    -17.09
   MgOH+           2.250e-08   2.052e-08    -7.648    -7.688    -0.040     (0)  
Na            1.000e-03
   Na+             9.895e-04   8.986e-04    -3.005    -3.046    -0.042     -1.39
   NaSO4-          1.008e-05   9.148e-06    -4.996    -5.039    -0.042     16.95
   NaHCO3          3.987e-07   4.000e-07    -6.399    -6.398     0.001     17.66
   Na2SO4          4.001e-12   4.008e-12   -11.398   -11.397     0.001     47.96
O(0)          0.000e+00
   O2              0.000e+00   0.000e+00   -42.064   -42.063     0.001     30.40
S(6)          2.000e-03
   SO4-2           1.701e-03   1.159e-03    -2.769    -2.936    -0.167     14.67
   MgSO4           1.708e-04   1.715e-04    -3.767    -3.766     0.002     -0.40
   CaSO4           9.948e-05   9.957e-05    -4.002    -4.002     0.000      7.22
   KSO4-           1.718e-05   1.569e-05    -4.765    -4.805    -0.039     20.49
   NaSO4-          1.008e-05   9.148e-06    -4.996    -5.039    -0.042     16.95
   Mg(SO4)2-2      9.407e-07   6.548e-07    -6.027    -6.184    -0.157     37.68
   HSO4-           1.243e-08   1.127e-08    -7.906    -7.948    -0.042     40.34
   CaHSO4+         9.201e-11   8.344e-11   -10.036   -10.079    -0.042     (0)  
   Na2SO4          4.001e-12   4.008e-12   -11.398   -11.397     0.001     47.96

------------------------------Saturation indices-------------------------------

  Phase               SI** log IAP   log K(298 K,   1 atm)

  Anhydrite        -1.83     -6.15   -4.31  CaSO4
  Aragonite        -1.25     -9.58   -8.34  CaCO3
  Arcanite         -7.16     -9.04   -1.88  K2SO4
  Calcite          -1.14     -9.58   -8.45  CaCO3
  CO2(g)           -2.23     -3.69   -1.47  CO2
  Dolomite         -2.12    -19.21  -17.08  CaMg(CO3)2
  Epsomite         -4.45     -6.18   -1.74  MgSO4:7H2O
  Gypsum           -1.60     -6.15   -4.55  CaSO4:2H2O
  H2(g)           -22.05    -25.15   -3.10  H2
  H2O(g)           -1.50     -0.00    1.50  H2O
  Halite           -7.66     -6.09    1.57  NaCl
  Hexahydrite      -4.62     -6.18   -1.57  MgSO4:6H2O
  Kieserite        -5.02     -6.18   -1.16  MgSO4:H2O
  Mirabilite       -8.32     -9.03   -0.71  Na2SO4:10H2O
  O2(g)           -39.17    -42.06   -2.89  O2
  Sylvite          -6.99     -6.09    0.90  KCl
  Thenardite       -9.68     -9.03    0.65  Na2SO4

**For a gas, SI = log10(fugacity). Fugacity = pressure * phi / 1 atm.
  For ideal gases, phi = 1.

------------------
End of simulation.
------------------

------------------------------------
Reading input data for simulation 2.
------------------------------------

