WARNING: Database file from DATABASE keyword is used; command line argument ignored.
   Input file: species_equation
  Output file: species_equation.out
Database file: ../database/phreeqc.dat

------------------
Reading data base.
------------------

	SOLUTION_MASTER_SPECIES
	SOLUTION_SPECIES
	PHASES
	GAS_BINARY_PARAMETERS
	EXCHANGE_MASTER_SPECIES
	EXCHANGE_SPECIES
	SURFACE_MASTER_SPECIES
	SURFACE_SPECIES
	MEAN_GAMMAS
	RATES
	END
------------------------------------
Reading input data for simulation 1.
------------------------------------

	DATABASE ../database/phreeqc.dat
	SELECTED_OUTPUT 101
	    file                 species_equation_101.sel
	USER_PUNCH 101
	    headings Mu SC
	    start
	10 PUNCH STR_F$(MU, 20, 12)
	20 PUNCH STR_F$(SC, 20, 10)
	    end
	SOLUTION 1
		Na	1
		Cl	1
		Al	2
		S(6)	3
	END
-------------------------------------------
Beginning of initial solution calculations.
-------------------------------------------

Initial solution 1.	

-----------------------------Solution composition------------------------------

	Elements           Molality       Moles

	Al                2.000e-03   2.000e-03
	Cl                1.000e-03   1.000e-03
	Na                1.000e-03   1.000e-03
	S(6)              3.000e-03   3.000e-03

----------------------------Description of solution----------------------------

                                       pH  =   7.000    
                                       pe  =   4.000    
      Specific Conductance (µS/cm,  25°C)  = 661
                          Density (g/cm³)  =   0.99751
                               Volume (L)  =   1.00303
                        Viscosity (mPa s)  =   0.89120
                        Activity of water  =   1.000
                 Ionic strength (mol/kgw)  =   7.921e-03
                       Mass of water (kg)  =   1.000e+00
                 Total alkalinity (eq/kg)  =   7.775e-03
                         Temperature (°C)  =  25.00
                  Electrical balance (eq)  =  -7.775e-03
 Percent error, 100*(Cat-|An|)/(Cat+|An|)  = -78.72
                               Iterations  =   8
                                  Total H  = 1.110202e+02
                                  Total O  = 5.552599e+01

----------------------------Distribution of species----------------------------

                                               Log       Log       Log    mole V
   Species          Molality    Activity  Molality  Activity     Gamma   cm³/mol

   OH-             1.113e-07   1.012e-07    -6.954    -6.995    -0.041     -4.05
   H+              1.086e-07   1.000e-07    -6.964    -7.000    -0.036      0.00
   H2O             5.551e+01   9.999e-01     1.744    -0.000     0.000     18.07
Al            2.000e-03
   Al(OH)4-        1.844e-03   1.681e-03    -2.734    -2.774    -0.040     (0)  
   Al(OH)3         8.903e-05   8.919e-05    -4.050    -4.050     0.001     (0)  
   Al(OH)2+        6.626e-05   6.054e-05    -4.179    -4.218    -0.039     (0)  
   AlOH+2          1.109e-06   7.725e-07    -5.955    -6.112    -0.157    -27.58
   AlSO4+          5.582e-08   5.089e-08    -7.253    -7.293    -0.040     (0)  
   Al+3            1.638e-08   7.778e-09    -7.786    -8.109    -0.323    -41.93
   Al(SO4)2-       3.652e-09   3.330e-09    -8.437    -8.478    -0.040     (0)  
   AlHSO4+2        6.551e-16   4.513e-16   -15.184   -15.346    -0.162     (0)  
Cl            1.000e-03
   Cl-             1.000e-03   9.101e-04    -3.000    -3.041    -0.041     18.13
   HCl             3.111e-11   3.135e-11   -10.507   -10.504     0.003     20.36
H(0)          1.413e-25
   H2              7.066e-26   7.079e-26   -25.151   -25.150     0.001     14.99
Na            1.000e-03
   Na+             9.821e-04   8.959e-04    -3.008    -3.048    -0.040     -1.39
   NaSO4-          1.787e-05   1.628e-05    -4.748    -4.788    -0.040     16.92
   Na2SO4          7.102e-12   7.113e-12   -11.149   -11.148     0.001     47.96
O(0)          0.000e+00
   O2              0.000e+00   0.000e+00   -42.063   -42.063     0.001     30.40
S(6)          3.000e-03
   SO4-2           2.982e-03   2.069e-03    -2.525    -2.684    -0.159     14.66
   NaSO4-          1.787e-05   1.628e-05    -4.748    -4.788    -0.040     16.92
   AlSO4+          5.582e-08   5.089e-08    -7.253    -7.293    -0.040     (0)  
   HSO4-           2.208e-08   2.012e-08    -7.656    -7.696    -0.040     40.33
   Al(SO4)2-       3.652e-09   3.330e-09    -8.437    -8.478    -0.040     (0)  
   Na2SO4          7.102e-12   7.113e-12   -11.149   -11.148     0.001     47.96
   AlHSO4+2        6.551e-16   4.513e-16   -15.184   -15.346    -0.162     (0)  

------------------------------Saturation indices-------------------------------

  Phase               SI** log IAP   log K(298 K,   1 atm)

  Al(OH)3(a)        2.09     12.89   10.80  Al(OH)3
  Gibbsite          4.78     12.89    8.11  Al(OH)3
  H2(g)           -22.05    -25.15   -3.10  H2
  H2O(g)           -1.50     -0.00    1.50  H2O
  Halite           -7.66     -6.09    1.57  NaCl
  Mirabilite       -8.07     -8.78   -0.71  Na2SO4:10H2O
  O2(g)           -39.17    -42.06   -2.89  O2
  Thenardite       -9.43     -8.78    0.65  Na2SO4

**For a gas, SI = log10(fugacity). Fugacity = pressure * phi / 1 atm.
  For ideal gases, phi = 1.

------------------
End of simulation.
------------------

------------------------------------
Reading input data for simulation 2.
------------------------------------

	EXCHANGE 1
		CaX2 0.5
	END
------------------
End of simulation.
------------------

------------------------------------
Reading input data for simulation 3.
------------------------------------

	SURFACE 1
		Hfo_wOH  .01 600 1
	EQUILIBRIUM_PHASES 1
	Calcite 0 10
	Gypsum 0 10
	Gibbsite 0 10
	Halite 0 10
	END
------------------
End of simulation.
------------------

------------------------------------
Reading input data for simulation 4.
------------------------------------

	USE solution 1
	USE exchange 1
	USE surface 1
	USE equilibrium_phases 1
	USER_PRINT
	10 t = SYS("aq", count, name$, type$, moles)
	20 for i = 1 to count
	30   eq$ = SPECIES_EQUATION(name$(i), count_s, s$, coef)
	40   PRINT eq$
	50   for j = 1 to count_s
	60     print pad(blank$, 5), pad(s$(j),5), str_f$(coef(j), 5, 0)
	70   next j
	80 next i
	110 t = SYS("ex", count, name$, type$, moles)
	120 for i = 1 to count
	130   eq$ = SPECIES_EQUATION(name$(i), count_s, s$, coef)
	140   PRINT eq$
	150   for j = 1 to count_s
	160     print pad(blank$, 5), pad(s$(j),5), str_f$(coef(j), 5, 0)
	170   next j
	180 next i
	210 t = SYS("surf", count, name$, type$, moles)
	220 for i = 1 to count
	230   eq$ = SPECIES_EQUATION(name$(i), count_s, s$, coef)
	240   PRINT eq$
	250   for j = 1 to count_s
	260     print pad(blank$, 5), pad(s$(j),5), str_f$(coef(j), 5, 0)
	270   next j
	280 next i
	210 t = SYS("equi", count, name$, type$, moles)
	220 for i = 1 to count
	230   eq$ = PHASE_EQUATION(name$(i), count_s, s$, coef)
	240   PRINT eq$
	250   for j = 1 to count_s
	260     print pad(blank$, 5), pad(s$(j),5), str_f$(coef(j), 5, 0)
	270   next j
	280 next i
-----------------------------------------
Beginning of batch-reaction calculations.
-----------------------------------------

Reaction step 1.

Using solution 1.	
Using exchange 1.	
Using surface 1.	
Using pure phase assemblage 1.	

----------------------------------User print-----------------------------------

Cl- = Cl-  
      Cl-      -1 
      Cl-       1 
Na+ = Na+  
      Na+      -1 
      Na+       1 
Ca+2 = Ca+2  
      Ca+2     -1 
      Ca+2      1 
Ca+2 + SO4-2 = CaSO4  
      CaSO4    -1 
      Ca+2      1 
      SO4-2     1 
Na+ + SO4-2 = NaSO4-  
      NaSO4-    -1 
      Na+       1 
      SO4-2     1 
SO4-2 = SO4-2  
      SO4-2    -1 
      SO4-2     1 
CO3-2 + H+ = HCO3-  
      HCO3-    -1 
      CO3-2     1 
      H+        1 
2Na+ + SO4-2 = Na2SO4  
      Na2SO4    -1 
      Na+       2 
      SO4-2     1 
HCO3- + Na+ = NaHCO3  
      NaHCO3    -1 
      HCO3-     1 
      Na+       1 
CO3-2 + 2H+ = CO2 + H2O  
      CO2      -1 
      CO3-2     1 
      H+        2 
      H2O      -1 
CO3-2 + Ca+2 = CaCO3  
      CaCO3    -1 
      CO3-2     1 
      Ca+2      1 
H+ = H+  
      H+       -1 
      H+        1 
H2O = OH- + H+  
      OH-      -1 
      H+       -1 
      H2O       1 
Ca+2 + H2O = CaOH+ + H+  
      CaOH+    -1 
      Ca+2      1 
      H+       -1 
      H2O       1 
CO3-2 = CO3-2  
      CO3-2    -1 
      CO3-2     1 
Al+3 + 4H2O = Al(OH)4- + 4H+  
      Al(OH)4-    -1 
      Al+3      1 
      H+       -4 
      H2O       4 
Al+3 + 2H2O = Al(OH)2+ + 2H+  
      Al(OH)2+    -1 
      Al+3      1 
      H+       -2 
      H2O       2 
Ca+2 + HSO4- = CaHSO4+  
      CaHSO4+    -1 
      Ca+2      1 
      HSO4-     1 
CO3-2 + Ca+2 + H+ = CaHCO3+  
      CaHCO3+    -1 
      CO3-2     1 
      Ca+2      1 
      H+        1 
Al+3 + 3H2O = Al(OH)3 + 3H+  
      Al(OH)3    -1 
      Al+3      1 
      H+       -3 
      H2O       3 
Al+3 + H2O = AlOH+2 + H+  
      AlOH+2    -1 
      Al+3      1 
      H+       -1 
      H2O       1 
Cl- + H+ = HCl  
      HCl      -1 
      Cl-       1 
      H+        1 
H+ + SO4-2 = HSO4-  
      HSO4-    -1 
      H+        1 
      SO4-2     1 
Al+3 = Al+3  
      Al+3     -1 
      Al+3      1 
Al+3 + SO4-2 = AlSO4+  
      AlSO4+    -1 
      Al+3      1 
      SO4-2     1 
2CO2 = (CO2)2  
      (CO2)2    -1 
      CO2       2 
2H+ + 2e- = H2  
      H2       -1 
      H+        2 
      e-        2 
Al+3 + 2SO4-2 = Al(SO4)2-  
      Al(SO4)2-    -1 
      Al+3      1 
      SO4-2     2 
9H+ + SO4-2 + 8e- = HS- + 4H2O  
      HS-      -1 
      H+        9 
      H2O      -4 
      SO4-2     1 
      e-        8 
H+ + HS- = H2S  
      H2S      -1 
      H+        1 
      HS-       1 
Al+3 + HSO4- = AlHSO4+2  
      AlHSO4+2    -1 
      Al+3      1 
      HSO4-     1 
CO3-2 + 10H+ + 8e- = CH4 + 3H2O  
      CH4      -1 
      CO3-2     1 
      H+       10 
      H2O      -3 
      e-        8 
HS- = S-2 + H+  
      S-2      -1 
      H+       -1 
      HS-       1 
2H2S = (H2S)2  
      (H2S)2    -1 
      H2S       2 
2H2O = O2 + 4H+ + 4e-  
      O2       -1 
      H+       -4 
      H2O       2 
      e-       -4 
Na+ + X- = NaX  
      NaX      -1 
      Na+       1 
      X-        1 
Ca+2 + 2X- = CaX2  
      CaX2     -1 
      Ca+2      1 
      X-        2 
AlOH+2 + 2X- = AlOHX2  
      AlOHX2    -1 
      AlOH+2     1 
      X-        2 
Al+3 + 3X- = AlX3  
      AlX3     -1 
      Al+3      1 
      X-        3 
Gibbsite + 3H+ = Al+3 + 3H2O  
      Al(OH)3    -1 
      Al+3      1 
      H+       -3 
      H2O       3 
Calcite = CO3-2 + Ca+2  
      CaCO3    -1 
      CO3-2     1 
      Ca+2      1 
Gypsum = Ca+2 + 2H2O + SO4-2  
      CaSO4:2H2O    -1 
      Ca+2      1 
      H2O       2 
      SO4-2     1 
Halite = Cl- + Na+  
      NaCl     -1 
      Cl-       1 
      Na+       1 

-------------------------------Phase assemblage--------------------------------

                                                      Moles in assemblage
Phase               SI  log IAP  log K(T, P)   Initial       Final       Delta

Calcite           0.00    -8.45     -8.45    1.000e+01   1.000e+01  -4.312e-04
Gibbsite         -0.00     8.11      8.11    1.000e+01   1.000e+01   2.000e-03
Gypsum            0.00    -4.55     -4.55    1.000e+01   9.995e+00  -4.577e-03
Halite            0.00     1.57      1.57    1.000e+01   3.743e+00  -6.257e+00

------------------------------Surface composition------------------------------

Diffuse Double Layer Surface-Complexation Model

Hfo           
	  2.810e-03  Surface charge, eq
	  4.519e-01  sigma, C/m²
	  6.100e-02  psi, V
	 -2.374e+00  -F*psi/RT
	  9.306e-02  exp(-F*psi/RT)
	  6.000e+02  specific area, m²/g
	  6.000e+02  m² for   1.000e+00 g


Hfo_w         
	  1.000e-02  moles
	                                   Mole                     Log
	Species               Moles    Fraction    Molality    Molality

	Hfo_wOH           4.761e-03       0.476   4.760e-03      -2.322
	Hfo_wOCa+         3.005e-03       0.301   3.004e-03      -2.522
	Hfo_wOH2+         1.039e-03       0.104   1.039e-03      -2.983
	Hfo_wO-           4.997e-04       0.050   4.996e-04      -3.301
	Hfo_wOHSO4-2      2.625e-04       0.026   2.624e-04      -3.581
	Hfo_wHCO3         2.230e-04       0.022   2.229e-04      -3.652
	Hfo_wCO3-         1.735e-04       0.017   1.734e-04      -3.761
	Hfo_wSO4-         3.612e-05       0.004   3.611e-05      -4.442

-----------------------------Exchange composition------------------------------

X                1.000e+00 mol

	                               Equiv-    Equivalent      Log 
	Species             Moles      alents      Fraction     Gamma

	NaX               9.153e-01   9.153e-01   9.153e-01     0.255
	CaX2              4.233e-02   8.465e-02   8.465e-02     0.102
	AlOHX2            1.526e-11   3.051e-11   3.051e-11    -0.659
	AlX3              4.552e-14   1.366e-13   1.366e-13    -1.373

-----------------------------Solution composition------------------------------

	Elements           Molality       Moles

	Al                3.776e-08   3.777e-08
	C                 3.473e-05   3.473e-05
	Ca                4.596e-01   4.597e-01
	Cl                6.257e+00   6.258e+00
	Na                5.342e+00   5.343e+00
	S                 7.277e-03   7.278e-03

----------------------------Description of solution----------------------------

                                       pH  =   6.920      Charge balance
                                       pe  =  -1.542      Adjusted to redox equilibrium
      Specific Conductance (µS/cm,  25°C)  = 246507
                          Density (g/cm³)  =   1.20620
                               Volume (L)  =   1.13085
                        Viscosity (mPa s)  =   1.82414
                        Activity of water  =   0.795
                 Ionic strength (mol/kgw)  =   6.715e+00
                       Mass of water (kg)  =   1.000e+00
                 Total alkalinity (eq/kg)  =   3.437e-05
                       Total CO2 (mol/kg)  =   3.473e-05
                         Temperature (°C)  =  25.00
                  Electrical balance (eq)  =  -1.058e-02
 Percent error, 100*(Cat-|An|)/(Cat+|An|)  =  -0.08
                               Iterations  =  22
                                  Total H  = 1.110352e+02
                                  Total O  = 5.554679e+01

----------------------------Distribution of species----------------------------

                                               Log       Log       Log    mole V
   Species          Molality    Activity  Molality  Activity     Gamma   cm³/mol

   H+              1.709e-07   1.203e-07    -6.767    -6.920    -0.153      0.00
   OH-             1.437e-07   6.689e-08    -6.842    -7.175    -0.332      5.63
   H2O             5.551e+01   7.950e-01     1.744    -0.100     0.000     18.07
Al            3.776e-08
   Al(OH)4-        3.456e-08   1.841e-08    -7.461    -7.735    -0.274     (0)  
   Al(OH)2+        2.614e-09   1.518e-09    -8.583    -8.819    -0.236     (0)  
   Al(OH)3         3.148e-10   1.478e-09    -9.502    -8.830     0.672     (0)  
   AlOH+2          2.579e-10   2.930e-11    -9.589   -10.533    -0.945    -26.13
   Al+3            1.054e-11   4.462e-13   -10.977   -12.350    -1.373    -37.40
   AlSO4+          2.052e-13   1.093e-13   -12.688   -12.961    -0.274     (0)  
   Al(SO4)2-       5.025e-16   2.676e-16   -15.299   -15.572    -0.274     (0)  
   AlHSO4+2        2.684e-24   1.166e-21   -23.571   -20.933     2.638     (0)  
C(-4)         4.223e-25
   CH4             4.223e-25   1.982e-24   -24.374   -23.703     0.672     35.46
C(4)          3.473e-05
   HCO3-           2.417e-05   1.583e-05    -4.617    -4.800    -0.184     45.30
   NaHCO3          7.280e-06   7.519e-05    -5.138    -4.124     1.014     17.66
   CO2             1.941e-06   5.386e-06    -5.712    -5.269     0.443     34.79
   CaCO3           1.276e-06   5.989e-06    -5.894    -5.223     0.672    -14.60
   CO3-2           5.433e-08   6.173e-09    -7.265    -8.210    -0.945      9.13
   CaHCO3+         1.320e-09   8.017e-10    -8.880    -9.096    -0.216     10.08
   (CO2)2          1.700e-13   4.716e-13   -12.770   -12.326     0.443     68.75
Ca            4.596e-01
   Ca+2            4.564e-01   5.776e-01    -0.341    -0.238     0.102    -14.00
   CaSO4           3.135e-03   6.239e-03    -2.504    -2.205     0.299      7.22
   CaCO3           1.276e-06   5.989e-06    -5.894    -5.223     0.672    -14.60
   CaOH+           1.388e-07   6.335e-07    -6.858    -6.198     0.659     (0)  
   CaHSO4+         1.378e-09   6.289e-09    -8.861    -8.201     0.659     (0)  
   CaHCO3+         1.320e-09   8.017e-10    -8.880    -9.096    -0.216     10.08
Cl            6.257e+00
   Cl-             6.257e+00   3.867e+00     0.796     0.587    -0.209     20.20
   HCl             2.222e-10   1.602e-07    -9.653    -6.795     2.858     20.36
H(0)          4.898e-15
   H2              2.449e-15   1.242e-14   -14.611   -13.906     0.705     14.99
Na            5.342e+00
   Na+             5.339e+00   9.608e+00     0.727     0.983     0.255      1.41
   NaSO4-          2.677e-03   6.536e-03    -2.572    -2.185     0.388     34.82
   Na2SO4          7.793e-06   3.062e-05    -5.108    -4.514     0.594     47.96
   NaHCO3          7.280e-06   7.519e-05    -5.138    -4.124     1.014     17.66
O(0)          0.000e+00
   O2              0.000e+00   0.000e+00   -65.421   -64.750     0.672     30.40
S(-2)         2.340e-20
   HS-             2.119e-20   9.864e-21   -19.674   -20.006    -0.332     23.02
   H2S             2.210e-21   1.037e-20   -20.656   -19.984     0.672     36.27
   S-2             1.004e-25   9.905e-27   -24.998   -26.004    -1.006     (0)  
   (H2S)2          0.000e+00   0.000e+00   -41.918   -41.246     0.672     30.09
S(6)          7.277e-03
   CaSO4           3.135e-03   6.239e-03    -2.504    -2.205     0.299      7.22
   NaSO4-          2.677e-03   6.536e-03    -2.572    -2.185     0.388     34.82
   SO4-2           1.457e-03   7.744e-05    -2.837    -4.111    -1.274     33.97
   Na2SO4          7.793e-06   3.062e-05    -5.108    -4.514     0.594     47.96
   CaHSO4+         1.378e-09   6.289e-09    -8.861    -8.201     0.659     (0)  
   HSO4-           1.984e-10   9.057e-10    -9.702    -9.043     0.659     42.11
   AlSO4+          2.052e-13   1.093e-13   -12.688   -12.961    -0.274     (0)  
   Al(SO4)2-       5.025e-16   2.676e-16   -15.299   -15.572    -0.274     (0)  
   AlHSO4+2        2.684e-24   1.166e-21   -23.571   -20.933     2.638     (0)  

------------------------------Saturation indices-------------------------------

  Phase               SI** log IAP   log K(298 K,   1 atm)

  Al(OH)3(a)       -2.69      8.11   10.80  Al(OH)3
  Anhydrite        -0.04     -4.35   -4.31  CaSO4
  Aragonite        -0.11     -8.45   -8.34  CaCO3
  Calcite           0.00     -8.45   -8.45  CaCO3
  CH4(g)          -20.90    -23.70   -2.80  CH4
  CO2(g)           -3.80     -5.27   -1.47  CO2
  Gibbsite         -0.00      8.11    8.11  Al(OH)3
  Gypsum            0.00     -4.55   -4.55  CaSO4:2H2O
  H2(g)           -10.81    -13.91   -3.10  H2
  H2O(g)           -1.60     -0.10    1.50  H2O
  H2S(g)          -18.99    -26.93   -7.94  H2S
  Halite            0.00      1.57    1.57  NaCl
  Mirabilite       -2.44     -3.14   -0.71  Na2SO4:10H2O
  O2(g)           -61.86    -64.75   -2.89  O2
  Sulfur          -14.11     -9.23    4.88  S
  Thenardite       -2.80     -2.15    0.65  Na2SO4

**For a gas, SI = log10(fugacity). Fugacity = pressure * phi / 1 atm.
  For ideal gases, phi = 1.

------------------
End of simulation.
------------------

------------------------------------
Reading input data for simulation 5.
------------------------------------

