WARNING: Database file from DATABASE keyword is used; command line argument ignored.
   Input file: spread_solution
  Output file: spread_solution.out
Database file: ../database/phreeqc.dat

------------------
Reading data base.
------------------

	SOLUTION_MASTER_SPECIES
	SOLUTION_SPECIES
	PHASES
	GAS_BINARY_PARAMETERS
	EXCHANGE_MASTER_SPECIES
	EXCHANGE_SPECIES
	SURFACE_MASTER_SPECIES
	SURFACE_SPECIES
	MEAN_GAMMAS
	RATES
	END
------------------------------------
Reading input data for simulation 1.
------------------------------------

	DATABASE ../database/phreeqc.dat
	SELECTED_OUTPUT 101
	    file                 spread_solution_101.sel
	USER_PUNCH 101
	    headings Mu SC
	    start
	10 PUNCH STR_F$(MU, 20, 12)
	20 PUNCH STR_F$(SC, 20, 10)
	    end
	SOLUTION 51
		pressure 51
	SOLUTION_S
	temp	25
	dens	1
	units	mmol/kgw
	redox 	pe
	pe	4
	pressure  3
	ph	7
	isotope_uncertainty 13C 1
	water	1.0
	Number	temp	13C	pH	Ca	Mg	Na	K	S(6)	Cl	Alkalinity	description	pressure
											mg/kgw as HCO3
	10-11	20	10		1	1	1	1	2	1	61          	soln 10-11	10
	ph	6
	1	15	20		1	1	1	1	2	1	61          	soln 1   	20
		15	20		1	1	1	1	2	1	61          	soln 1	
	END
-------------------------------------------
Beginning of initial solution calculations.
-------------------------------------------

Initial solution 1.	 soln 1    

-----------------------------Solution composition------------------------------

	Elements           Molality       Moles

	Alkalinity        9.997e-04   9.997e-04
	Ca                1.000e-03   1.000e-03
	Cl                1.000e-03   1.000e-03
	K                 1.000e-03   1.000e-03
	Mg                1.000e-03   1.000e-03
	Na                1.000e-03   1.000e-03
	S(6)              2.000e-03   2.000e-03

----------------------------Description of solution----------------------------

                                       pH  =   6.000    
                                       pe  =   4.000    
      Specific Conductance (µS/cm,  15°C)  = 526
                          Density (g/cm³)  =   1.00039
                               Volume (L)  =   1.00013
                        Viscosity (mPa s)  =   1.13949
                        Activity of water  =   1.000
                 Ionic strength (mol/kgw)  =   9.065e-03
                       Mass of water (kg)  =   1.000e+00
                    Total carbon (mol/kg)  =   3.316e-03
                       Total CO2 (mol/kg)  =   3.316e-03
                         Temperature (°C)  =  15.00
                           Pressure (atm)  = 20.00
                  Electrical balance (eq)  =   3.130e-07
 Percent error, 100*(Cat-|An|)/(Cat+|An|)  =   0.00
                               Iterations  =   9
                                  Total H  = 1.110134e+02
                                  Total O  = 5.552185e+01

----------------------------Distribution of species----------------------------

                                               Log       Log       Log    mole V
   Species          Molality    Activity  Molality  Activity     Gamma   cm³/mol

   H+              1.090e-06   1.000e-06    -5.963    -6.000    -0.037      0.00
   OH-             5.099e-09   4.618e-09    -8.292    -8.336    -0.043     -4.43
   H2O             5.551e+01   9.998e-01     1.744    -0.000     0.000     18.02
C(4)          3.316e-03
   CO2             2.316e-03   2.319e-03    -2.635    -2.635     0.001     34.30
   HCO3-           9.934e-04   9.043e-04    -3.003    -3.044    -0.041     23.80
   MgHCO3+         6.613e-06   5.998e-06    -5.180    -5.222    -0.042      5.26
   NaHCO3          3.608e-07   3.619e-07    -6.443    -6.441     0.001     16.91
   KHCO3           3.062e-07   3.069e-07    -6.514    -6.513     0.001     20.55
   CO3-2           5.030e-08   3.452e-08    -7.298    -7.462    -0.163     -5.38
   (CO2)2          5.019e-08   5.026e-08    -7.299    -7.299     0.001     67.76
   CaCO3           3.103e-08   3.110e-08    -7.508    -7.507     0.001    -14.49
   MgCO3           1.643e-08   1.647e-08    -7.784    -7.783     0.001    -16.92
   CaHCO3+         5.699e-12   5.195e-12   -11.244   -11.284    -0.040      9.32
Ca            1.000e-03
   Ca+2            9.248e-04   6.344e-04    -3.034    -3.198    -0.164    -17.97
   CaSO4           7.515e-05   7.522e-05    -4.124    -4.124     0.000      6.06
   CaCO3           3.103e-08   3.110e-08    -7.508    -7.507     0.001    -14.49
   CaHSO4+         7.920e-10   7.186e-10    -9.101    -9.143    -0.042     (0)  
   CaOH+           1.160e-10   1.053e-10    -9.935    -9.978    -0.042     (0)  
   CaHCO3+         5.699e-12   5.195e-12   -11.244   -11.284    -0.040      9.32
Cl            1.000e-03
   Cl-             1.000e-03   9.063e-04    -3.000    -3.043    -0.043     17.75
   HCl             3.288e-10   3.317e-10    -9.483    -9.479     0.004     19.57
H(0)          1.548e-23
   H2              7.742e-24   7.759e-24   -23.111   -23.110     0.001     14.18
K             1.000e-03
   K+              9.824e-04   8.900e-04    -3.008    -3.051    -0.043      8.76
   KSO4-           1.725e-05   1.577e-05    -4.763    -4.802    -0.039     20.92
   KHCO3           3.062e-07   3.069e-07    -6.514    -6.513     0.001     20.55
Mg            1.000e-03
   Mg+2            8.514e-04   5.874e-04    -3.070    -3.231    -0.161    -21.10
   MgSO4           1.410e-04   1.416e-04    -3.851    -3.849     0.002     -0.87
   MgHCO3+         6.613e-06   5.998e-06    -5.180    -5.222    -0.042      5.26
   Mg(SO4)2-2      9.542e-07   6.657e-07    -6.020    -6.177    -0.156     34.25
   MgCO3           1.643e-08   1.647e-08    -7.784    -7.783     0.001    -16.92
   MgOH+           9.156e-10   8.356e-10    -9.038    -9.078    -0.040     (0)  
Na            1.000e-03
   Na+             9.903e-04   8.999e-04    -3.004    -3.046    -0.042     -1.93
   NaSO4-          9.298e-06   8.440e-06    -5.032    -5.074    -0.042     16.60
   NaHCO3          3.608e-07   3.619e-07    -6.443    -6.441     0.001     16.91
   Na2SO4          1.264e-12   1.267e-12   -11.898   -11.897     0.001     53.70
O(0)          0.000e+00
   O2              0.000e+00   0.000e+00   -49.593   -49.592     0.001     29.49
S(6)          2.000e-03
   SO4-2           1.755e-03   1.199e-03    -2.756    -2.921    -0.166     13.11
   MgSO4           1.410e-04   1.416e-04    -3.851    -3.849     0.002     -0.87
   CaSO4           7.515e-05   7.522e-05    -4.124    -4.124     0.000      6.06
   KSO4-           1.725e-05   1.577e-05    -4.763    -4.802    -0.039     20.92
   NaSO4-          9.298e-06   8.440e-06    -5.032    -5.074    -0.042     16.60
   Mg(SO4)2-2      9.542e-07   6.657e-07    -6.020    -6.177    -0.156     34.25
   HSO4-           1.021e-07   9.261e-08    -6.991    -7.033    -0.042     39.47
   CaHSO4+         7.920e-10   7.186e-10    -9.101    -9.143    -0.042     (0)  
   Na2SO4          1.264e-12   1.267e-12   -11.898   -11.897     0.001     53.70

------------------------------Saturation indices-------------------------------

  Phase               SI** log IAP   log K(288 K,  20 atm)

  Anhydrite        -1.98     -6.12   -4.14  CaSO4
  Aragonite        -2.40    -10.66   -8.26  CaCO3
  Arcanite         -7.01     -9.02   -2.01  K2SO4
  Calcite          -2.30    -10.66   -8.36  CaCO3
  CO2(g)           -1.28     -2.63   -1.35  CO2
  Dolomite         -4.46    -21.35  -16.90  CaMg(CO3)2
  Epsomite         -4.36     -6.15   -1.79  MgSO4:7H2O
  Gypsum           -1.61     -6.12   -4.50  CaSO4:2H2O
  H2(g)           -20.03    -23.11   -3.08  H2
  H2O(g)           -1.76     -0.00    1.76  H2O
  Halite           -7.65     -6.09    1.57  NaCl
  Hexahydrite      -4.58     -6.15   -1.57  MgSO4:6H2O
  Kieserite        -4.92     -6.15   -1.23  MgSO4:H2O
  Mirabilite       -7.61     -9.01   -1.41  Na2SO4:10H2O
  O2(g)           -46.77    -49.59   -2.82  O2
  Sylvite          -6.95     -6.09    0.85  KCl
  Thenardite       -9.81     -9.01    0.80  Na2SO4

**For a gas, SI = log10(fugacity). Fugacity = pressure * phi / 1 atm.
  For ideal gases, phi = 1.

Initial solution 10.	 soln 10-11 

-----------------------------Solution composition------------------------------

	Elements           Molality       Moles

	Alkalinity        9.997e-04   9.997e-04
	Ca                1.000e-03   1.000e-03
	Cl                1.000e-03   1.000e-03
	K                 1.000e-03   1.000e-03
	Mg                1.000e-03   1.000e-03
	Na                1.000e-03   1.000e-03
	S(6)              2.000e-03   2.000e-03

----------------------------Description of solution----------------------------

                                       pH  =   7.000    
                                       pe  =   4.000    
      Specific Conductance (µS/cm,  20°C)  = 590
                          Density (g/cm³)  =   0.99899
                               Volume (L)  =   1.00143
                        Viscosity (mPa s)  =   1.00372
                        Activity of water  =   1.000
                 Ionic strength (mol/kgw)  =   8.958e-03
                       Mass of water (kg)  =   1.000e+00
                    Total carbon (mol/kg)  =   1.213e-03
                       Total CO2 (mol/kg)  =   1.213e-03
                         Temperature (°C)  =  20.00
                           Pressure (atm)  = 10.00
                  Electrical balance (eq)  =   3.130e-07
 Percent error, 100*(Cat-|An|)/(Cat+|An|)  =   0.00
                               Iterations  =   7 (16 overall)
                                  Total H  = 1.110134e+02
                                  Total O  = 5.551764e+01

----------------------------Distribution of species----------------------------

                                               Log       Log       Log    mole V
   Species          Molality    Activity  Molality  Activity     Gamma   cm³/mol

   H+              1.090e-07   1.000e-07    -6.963    -7.000    -0.037      0.00
   OH-             7.623e-08   6.902e-08    -7.118    -7.161    -0.043     -4.22
   H2O             5.551e+01   9.999e-01     1.744    -0.000     0.000     18.04
C(4)          1.213e-03
   HCO3-           9.902e-04   9.012e-04    -3.004    -3.045    -0.041     24.29
   CO2             2.146e-04   2.149e-04    -3.668    -3.668     0.001     34.55
   MgHCO3+         6.570e-06   5.956e-06    -5.182    -5.225    -0.043      5.41
   CO3-2           5.596e-07   3.837e-07    -6.252    -6.416    -0.164     -4.81
   NaHCO3          3.785e-07   3.797e-07    -6.422    -6.421     0.001     17.31
   CaCO3           3.662e-07   3.669e-07    -6.436    -6.435     0.001    -14.55
   KHCO3           3.306e-07   3.313e-07    -6.481    -6.480     0.001     21.02
   MgCO3           1.944e-07   1.948e-07    -6.711    -6.710     0.001    -17.01
   (CO2)2          5.753e-10   5.761e-10    -9.240    -9.240     0.001     68.26
   CaHCO3+         1.801e-11   1.641e-11   -10.744   -10.785    -0.040      9.54
Ca            1.000e-03
   Ca+2            9.129e-04   6.255e-04    -3.040    -3.204    -0.164    -17.95
   CaSO4           8.672e-05   8.680e-05    -4.062    -4.061     0.000      6.68
   CaCO3           3.662e-07   3.669e-07    -6.436    -6.435     0.001    -14.55
   CaOH+           1.144e-09   1.038e-09    -8.941    -8.984    -0.042     (0)  
   CaHSO4+         8.532e-11   7.739e-11   -10.069   -10.111    -0.042     (0)  
   CaHCO3+         1.801e-11   1.641e-11   -10.744   -10.785    -0.040      9.54
Cl            1.000e-03
   Cl-             1.000e-03   9.060e-04    -3.000    -3.043    -0.043     17.97
   HCl             3.189e-11   3.217e-11   -10.496   -10.493     0.004     20.00
H(0)          1.478e-25
   H2              7.391e-26   7.407e-26   -25.131   -25.130     0.001     14.61
K             1.000e-03
   K+              9.825e-04   8.898e-04    -3.008    -3.051    -0.043      8.92
   KSO4-           1.719e-05   1.571e-05    -4.765    -4.804    -0.039     20.71
   KHCO3           3.306e-07   3.313e-07    -6.481    -6.480     0.001     21.02
Mg            1.000e-03
   Mg+2            8.368e-04   5.766e-04    -3.077    -3.239    -0.162    -21.37
   MgSO4           1.555e-04   1.562e-04    -3.808    -3.806     0.002     -0.62
   MgHCO3+         6.570e-06   5.956e-06    -5.182    -5.225    -0.043      5.41
   Mg(SO4)2-2      9.484e-07   6.609e-07    -6.023    -6.180    -0.157     36.03
   MgCO3           1.944e-07   1.948e-07    -6.711    -6.710     0.001    -17.01
   MgOH+           1.448e-08   1.321e-08    -7.839    -7.879    -0.040     (0)  
Na            1.000e-03
   Na+             9.899e-04   8.992e-04    -3.004    -3.046    -0.042     -1.64
   NaSO4-          9.696e-06   8.798e-06    -5.013    -5.056    -0.042     16.82
   NaHCO3          3.785e-07   3.797e-07    -6.422    -6.421     0.001     17.31
   Na2SO4          2.282e-12   2.286e-12   -11.642   -11.641     0.001     50.62
O(0)          0.000e+00
   O2              0.000e+00   0.000e+00   -43.796   -43.795     0.001     29.97
S(6)          2.000e-03
   SO4-2           1.729e-03   1.180e-03    -2.762    -2.928    -0.166     13.98
   MgSO4           1.555e-04   1.562e-04    -3.808    -3.806     0.002     -0.62
   CaSO4           8.672e-05   8.680e-05    -4.062    -4.061     0.000      6.68
   KSO4-           1.719e-05   1.571e-05    -4.765    -4.804    -0.039     20.71
   NaSO4-          9.696e-06   8.798e-06    -5.013    -5.056    -0.042     16.82
   Mg(SO4)2-2      9.484e-07   6.609e-07    -6.023    -6.180    -0.157     36.03
   HSO4-           1.125e-08   1.021e-08    -7.949    -7.991    -0.042     39.95
   CaHSO4+         8.532e-11   7.739e-11   -10.069   -10.111    -0.042     (0)  
   Na2SO4          2.282e-12   2.286e-12   -11.642   -11.641     0.001     50.62

------------------------------Saturation indices-------------------------------

  Phase               SI** log IAP   log K(293 K,  10 atm)

  Anhydrite        -1.90     -6.13   -4.23  CaSO4
  Aragonite        -1.32     -9.62   -8.30  CaCO3
  Arcanite         -7.09     -9.03   -1.94  K2SO4
  Calcite          -1.22     -9.62   -8.40  CaCO3
  CO2(g)           -2.26     -3.67   -1.41  CO2
  Dolomite         -2.29    -19.27  -16.98  CaMg(CO3)2
  Epsomite         -4.40     -6.17   -1.76  MgSO4:7H2O
  Gypsum           -1.61     -6.13   -4.52  CaSO4:2H2O
  H2(g)           -22.04    -25.13   -3.09  H2
  H2O(g)           -1.63     -0.00    1.63  H2O
  Halite           -7.66     -6.09    1.57  NaCl
  Hexahydrite      -4.60     -6.17   -1.57  MgSO4:6H2O
  Kieserite        -4.98     -6.17   -1.19  MgSO4:H2O
  Mirabilite       -7.96     -9.02   -1.06  Na2SO4:10H2O
  O2(g)           -40.94    -43.79   -2.86  O2
  Sylvite          -6.97     -6.09    0.88  KCl
  Thenardite       -9.74     -9.02    0.72  Na2SO4

**For a gas, SI = log10(fugacity). Fugacity = pressure * phi / 1 atm.
  For ideal gases, phi = 1.

Initial solution 51.	

-----------------------------Solution composition------------------------------

	Elements           Molality       Moles

	Pure water     

----------------------------Description of solution----------------------------

                                       pH  =   7.000    
                                       pe  =   4.000    
      Specific Conductance (µS/cm,  25°C)  = 0
                          Density (g/cm³)  =   0.99929
                               Volume (L)  =   1.00071
                        Viscosity (mPa s)  =   0.88937
                        Activity of water  =   1.000
                 Ionic strength (mol/kgw)  =   1.030e-07
                       Mass of water (kg)  =   1.000e+00
                 Total alkalinity (eq/kg)  =   5.869e-09
                         Temperature (°C)  =  25.00
                           Pressure (atm)  = 51.00
                  Electrical balance (eq)  =  -5.869e-09
 Percent error, 100*(Cat-|An|)/(Cat+|An|)  =  -2.85
                               Iterations  =   0 (16 overall)
                                  Total H  = 1.110124e+02
                                  Total O  = 5.550622e+01

----------------------------Distribution of species----------------------------

                                               Log       Log       Log    mole V
   Species          Molality    Activity  Molality  Activity     Gamma   cm³/mol

   OH-             1.059e-07   1.059e-07    -6.975    -6.975    -0.000     -3.95
   H+              1.001e-07   1.000e-07    -7.000    -7.000    -0.000      0.00
   H2O             5.551e+01   1.000e+00     1.744     0.000     0.000     18.03
H(0)          1.373e-25
   H2              6.865e-26   6.865e-26   -25.163   -25.163     0.000     15.02
O(0)          0.000e+00
   O2              0.000e+00   0.000e+00   -42.057   -42.057     0.000     30.33

------------------------------Saturation indices-------------------------------

  Phase               SI** log IAP   log K(298 K,  51 atm)

  H2(g)           -22.05    -25.16   -3.11  H2
  H2O(g)           -1.49      0.00    1.49  H2O
  O2(g)           -39.14    -42.06   -2.92  O2

**For a gas, SI = log10(fugacity). Fugacity = pressure * phi / 1 atm.
  For ideal gases, phi = 1.

Initial solution 52.	 soln 1 

-----------------------------Solution composition------------------------------

	Elements           Molality       Moles

	Alkalinity        9.997e-04   9.997e-04
	Ca                1.000e-03   1.000e-03
	Cl                1.000e-03   1.000e-03
	K                 1.000e-03   1.000e-03
	Mg                1.000e-03   1.000e-03
	Na                1.000e-03   1.000e-03
	S(6)              2.000e-03   2.000e-03

----------------------------Description of solution----------------------------

                                       pH  =   6.000    
                                       pe  =   4.000    
      Specific Conductance (µS/cm,  15°C)  = 525
                          Density (g/cm³)  =   0.99959
                               Volume (L)  =   1.00093
                        Viscosity (mPa s)  =   1.14043
                        Activity of water  =   1.000
                 Ionic strength (mol/kgw)  =   9.061e-03
                       Mass of water (kg)  =   1.000e+00
                    Total carbon (mol/kg)  =   3.364e-03
                       Total CO2 (mol/kg)  =   3.364e-03
                         Temperature (°C)  =  15.00
                           Pressure (atm)  =  3.00
                  Electrical balance (eq)  =   3.130e-07
 Percent error, 100*(Cat-|An|)/(Cat+|An|)  =   0.00
                               Iterations  =   9 (25 overall)
                                  Total H  = 1.110134e+02
                                  Total O  = 5.552195e+01

----------------------------Distribution of species----------------------------

                                               Log       Log       Log    mole V
   Species          Molality    Activity  Molality  Activity     Gamma   cm³/mol

   H+              1.090e-06   1.000e-06    -5.963    -6.000    -0.037      0.00
   OH-             5.018e-09   4.544e-09    -8.299    -8.343    -0.043     -4.55
   H2O             5.551e+01   9.998e-01     1.744    -0.000     0.000     18.03
C(4)          3.364e-03
   CO2             2.363e-03   2.367e-03    -2.626    -2.626     0.001     34.32
   HCO3-           9.934e-04   9.043e-04    -3.003    -3.044    -0.041     23.75
   MgHCO3+         6.620e-06   6.003e-06    -5.179    -5.222    -0.042      5.19
   NaHCO3          3.594e-07   3.606e-07    -6.444    -6.443     0.001     16.77
   KHCO3           3.036e-07   3.042e-07    -6.518    -6.517     0.001     20.57
   (CO2)2          5.226e-08   5.233e-08    -7.282    -7.281     0.001     67.79
   CO3-2           4.926e-08   3.380e-08    -7.308    -7.471    -0.164     -5.54
   CaCO3           3.056e-08   3.062e-08    -7.515    -7.514     0.001    -14.62
   MgCO3           1.619e-08   1.622e-08    -7.791    -7.790     0.001    -17.06
   CaHCO3+         5.709e-12   5.204e-12   -11.243   -11.284    -0.040      9.27
Ca            1.000e-03
   Ca+2            9.243e-04   6.339e-04    -3.034    -3.198    -0.164    -18.10
   CaSO4           7.562e-05   7.569e-05    -4.121    -4.121     0.000      6.02
   CaCO3           3.056e-08   3.062e-08    -7.515    -7.514     0.001    -14.62
   CaHSO4+         7.936e-10   7.200e-10    -9.100    -9.143    -0.042     (0)  
   CaOH+           1.159e-10   1.052e-10    -9.936    -9.978    -0.042     (0)  
   CaHCO3+         5.709e-12   5.204e-12   -11.243   -11.284    -0.040      9.27
Cl            1.000e-03
   Cl-             1.000e-03   9.062e-04    -3.000    -3.043    -0.043     17.73
   HCl             3.292e-10   3.321e-10    -9.483    -9.479     0.004     19.56
H(0)          1.564e-23
   H2              7.821e-24   7.838e-24   -23.107   -23.106     0.001     14.15
K             1.000e-03
   K+              9.825e-04   8.900e-04    -3.008    -3.051    -0.043      8.69
   KSO4-           1.723e-05   1.574e-05    -4.764    -4.803    -0.039     20.89
   KHCO3           3.036e-07   3.042e-07    -6.518    -6.517     0.001     20.57
Mg            1.000e-03
   Mg+2            8.509e-04   5.869e-04    -3.070    -3.231    -0.161    -21.25
   MgSO4           1.415e-04   1.421e-04    -3.849    -3.847     0.002     -1.34
   MgHCO3+         6.620e-06   6.003e-06    -5.179    -5.222    -0.042      5.19
   Mg(SO4)2-2      9.721e-07   6.781e-07    -6.012    -6.169    -0.156     34.28
   MgCO3           1.619e-08   1.622e-08    -7.791    -7.790     0.001    -17.06
   MgOH+           9.169e-10   8.368e-10    -9.038    -9.077    -0.040     (0)  
Na            1.000e-03
   Na+             9.903e-04   8.998e-04    -3.004    -3.046    -0.042     -1.99
   NaSO4-          9.327e-06   8.465e-06    -5.030    -5.072    -0.042     16.53
   NaHCO3          3.594e-07   3.606e-07    -6.444    -6.443     0.001     16.77
   Na2SO4          1.304e-12   1.307e-12   -11.885   -11.884     0.001     53.68
O(0)          0.000e+00
   O2              0.000e+00   0.000e+00   -49.595   -49.594     0.001     29.50
S(6)          2.000e-03
   SO4-2           1.754e-03   1.198e-03    -2.756    -2.922    -0.166     12.92
   MgSO4           1.415e-04   1.421e-04    -3.849    -3.847     0.002     -1.34
   CaSO4           7.562e-05   7.569e-05    -4.121    -4.121     0.000      6.02
   KSO4-           1.723e-05   1.574e-05    -4.764    -4.803    -0.039     20.89
   NaSO4-          9.327e-06   8.465e-06    -5.030    -5.072    -0.042     16.53
   Mg(SO4)2-2      9.721e-07   6.781e-07    -6.012    -6.169    -0.156     34.28
   HSO4-           1.039e-07   9.430e-08    -6.983    -7.025    -0.042     39.50
   CaHSO4+         7.936e-10   7.200e-10    -9.100    -9.143    -0.042     (0)  
   Na2SO4          1.304e-12   1.307e-12   -11.885   -11.884     0.001     53.68

------------------------------Saturation indices-------------------------------

  Phase               SI** log IAP   log K(288 K,   3 atm)

  Anhydrite        -1.96     -6.12   -4.16  CaSO4
  Aragonite        -2.39    -10.67   -8.28  CaCO3
  Arcanite         -7.00     -9.02   -2.02  K2SO4
  Calcite          -2.29    -10.67   -8.38  CaCO3
  CO2(g)           -1.28     -2.63   -1.34  CO2
  Dolomite         -4.44    -21.37  -16.93  CaMg(CO3)2
  Epsomite         -4.35     -6.15   -1.80  MgSO4:7H2O
  Gypsum           -1.60     -6.12   -4.52  CaSO4:2H2O
  H2(g)           -20.03    -23.11   -3.08  H2
  H2O(g)           -1.77     -0.00    1.77  H2O
  Halite           -7.65     -6.09    1.56  NaCl
  Hexahydrite      -4.57     -6.15   -1.58  MgSO4:6H2O
  Kieserite        -4.91     -6.15   -1.24  MgSO4:H2O
  Mirabilite       -7.60     -9.01   -1.42  Na2SO4:10H2O
  O2(g)           -46.78    -49.59   -2.81  O2
  Sylvite          -6.94     -6.09    0.85  KCl
  Thenardite       -9.80     -9.01    0.78  Na2SO4

**For a gas, SI = log10(fugacity). Fugacity = pressure * phi / 1 atm.
  For ideal gases, phi = 1.

------------------
End of simulation.
------------------

------------------------------------
Reading input data for simulation 2.
------------------------------------

