WARNING: Database file from DATABASE keyword is used; command line argument ignored.
   Input file: SrSO4_tc
  Output file: SrSO4_tc.out
Database file: ../database/phreeqc.dat

------------------
Reading data base.
------------------

	SOLUTION_MASTER_SPECIES
	SOLUTION_SPECIES
	PHASES
	GAS_BINARY_PARAMETERS
	EXCHANGE_MASTER_SPECIES
	EXCHANGE_SPECIES
	SURFACE_MASTER_SPECIES
	SURFACE_SPECIES
	MEAN_GAMMAS
	RATES
	END
------------------------------------
Reading input data for simulation 1.
------------------------------------

	DATABASE ../database/phreeqc.dat
	SELECTED_OUTPUT 101
	    file                 SrSO4_tc_101.sel
	USER_PUNCH 101
	    headings Mu SC
	    start
	10 PUNCH STR_F$(MU, 20, 12)
	20 PUNCH STR_F$(SC, 20, 10)
	    end
	SOLUTION 1
	 pH 7 charge
	 temp 25
	 pressure 200
	EQUILIBRIUM_PHASES
	 Celestite
	REACTION_TEMPERATURE
	 25 250 in 10
	USER_GRAPH
	 axis_titles "Temperature / oC" "Celestitte solubility / M"
	  1 DATA 7.556e-04, 6.469e-04, 3.901e-04, 2.568e-04, 1.580e-04,  5.926e-05
	  2 DIM d(6)
	  3 read d(1), d(2), d(3), d(4), d(5), d(6)
	  4 DATA 25, 50, 100, 150, 200, 250
	  5 DIM t(6)
	  6 read t(1), t(2), t(3), t(4), t(5), t(6)
	 10 plot_xy tc, tot("Sr"), color = Red, symbol = None
	 20 if step_no > 6 then goto 30
	 22 plot_xy t(step_no), d(step_no), line_width = 0, color = Red
	 30 end
	END
-------------------------------------------
Beginning of initial solution calculations.
-------------------------------------------

Initial solution 1.	

-----------------------------Solution composition------------------------------

	Elements           Molality       Moles

	Pure water     

----------------------------Description of solution----------------------------

                                       pH  =   6.960      Charge balance
                                       pe  =   4.000    
      Specific Conductance (µS/cm,  25°C)  = 0
                          Density (g/cm³)  =   1.00591
                               Volume (L)  =   0.99413
                        Viscosity (mPa s)  =   0.88790
                        Activity of water  =   1.000
                 Ionic strength (mol/kgw)  =   1.098e-07
                       Mass of water (kg)  =   1.000e+00
                 Total alkalinity (eq/kg)  =  -3.825e-21
                         Temperature (°C)  =  25.00
                           Pressure (atm)  = 200.00
                  Electrical balance (eq)  =   3.825e-21
 Percent error, 100*(Cat-|An|)/(Cat+|An|)  =   0.00
                               Iterations  =   3
                                  Total H  = 1.110124e+02
                                  Total O  = 5.550622e+01

----------------------------Distribution of species----------------------------

                                               Log       Log       Log    mole V
   Species          Molality    Activity  Molality  Activity     Gamma   cm³/mol

   H+              1.098e-07   1.097e-07    -6.960    -6.960    -0.000      0.00
   OH-             1.098e-07   1.097e-07    -6.960    -6.960    -0.000     -3.43
   H2O             5.551e+01   1.000e+00     1.744    -0.000     0.000     17.91
H(0)          1.508e-25
   H2              7.538e-26   7.538e-26   -25.123   -25.123     0.000     15.12
O(0)          0.000e+00
   O2              0.000e+00   0.000e+00   -42.204   -42.204     0.000     30.12

------------------------------Saturation indices-------------------------------

  Phase               SI** log IAP   log K(298 K, 200 atm)

  H2(g)           -21.97    -25.12   -3.15  H2
  H2O(g)           -1.44     -0.00    1.44  H2O
  O2(g)           -39.20    -42.20   -3.00  O2

**For a gas, SI = log10(fugacity). Fugacity = pressure * phi / 1 atm.
  For ideal gases, phi = 1.

-----------------------------------------
Beginning of batch-reaction calculations.
-----------------------------------------

Reaction step 1.

Using solution 1.	
Using pure phase assemblage 1.	
Using temperature 1.	

-------------------------------Phase assemblage--------------------------------

                                                      Moles in assemblage
Phase               SI  log IAP  log K(T, P)   Initial       Final       Delta

Celestite         0.00    -6.49     -6.49    1.000e+01   9.999e+00  -7.616e-04

-----------------------------Solution composition------------------------------

	Elements           Molality       Moles

	S                 7.616e-04   7.616e-04
	Sr                7.616e-04   7.616e-04

----------------------------Description of solution----------------------------

                                       pH  =   6.968      Charge balance
                                       pe  =  -1.495      Adjusted to redox equilibrium
      Specific Conductance (µS/cm,  25°C)  = 191
                          Density (g/cm³)  =   1.00605
                               Volume (L)  =   0.99413
                        Viscosity (mPa s)  =   0.88898
                        Activity of water  =   1.000
                 Ionic strength (mol/kgw)  =   2.842e-03
                       Mass of water (kg)  =   1.000e+00
                 Total alkalinity (eq/kg)  =  -3.919e-18
                         Temperature (°C)  =  25.00
                           Pressure (atm)  = 200.00
                  Electrical balance (eq)  =   8.280e-16
 Percent error, 100*(Cat-|An|)/(Cat+|An|)  =   0.00
                               Iterations  =  14
                                  Total H  = 1.110124e+02
                                  Total O  = 5.550926e+01

----------------------------Distribution of species----------------------------

                                               Log       Log       Log    mole V
   Species          Molality    Activity  Molality  Activity     Gamma   cm³/mol

   OH-             1.185e-07   1.118e-07    -6.926    -6.952    -0.025     -3.38
   H+              1.136e-07   1.077e-07    -6.945    -6.968    -0.023      0.00
   H2O             5.551e+01   1.000e+00     1.744    -0.000     0.000     17.91
H(0)          1.414e-14
   H2              7.072e-15   7.077e-15   -14.150   -14.150     0.000     15.12
O(0)          0.000e+00
   O2              0.000e+00   0.000e+00   -64.149   -64.149     0.000     30.12
S(-2)         4.558e-21
   HS-             2.538e-21   2.394e-21   -20.595   -20.621    -0.025     20.71
   H2S             2.020e-21   2.021e-21   -20.695   -20.694     0.000     34.12
   S-2             3.993e-27   3.178e-27   -26.399   -26.498    -0.099     (0)  
   (H2S)2          0.000e+00   0.000e+00   -42.563   -42.563     0.000     38.72
S(6)          7.616e-04
   SO4-2           7.106e-04   5.655e-04    -3.148    -3.248    -0.099     16.33
   SrSO4           5.106e-05   5.109e-05    -4.292    -4.292     0.000     24.80
   HSO4-           5.179e-09   4.888e-09    -8.286    -8.311    -0.025     39.88
Sr            7.616e-04
   Sr+2            7.106e-04   5.666e-04    -3.148    -3.247    -0.098    -16.27
   SrSO4           5.106e-05   5.109e-05    -4.292    -4.292     0.000     24.80
   SrOH+           2.896e-10   2.735e-10    -9.538    -9.563    -0.025     (0)  

------------------------------Saturation indices-------------------------------

  Phase               SI** log IAP   log K(298 K, 200 atm)

  Celestite         0.00     -6.49   -6.49  SrSO4
  H2(g)           -11.00    -14.15   -3.15  H2
  H2O(g)           -1.44     -0.00    1.44  H2O
  H2S(g)          -19.58    -27.59   -8.01  H2S
  O2(g)           -61.15    -64.15   -3.00  O2
  Sulfur          -14.51     -9.75    4.76  S

**For a gas, SI = log10(fugacity). Fugacity = pressure * phi / 1 atm.
  For ideal gases, phi = 1.

Reaction step 2.

Using solution 1.	
Using pure phase assemblage 1.	
Using temperature 1.	

-------------------------------Phase assemblage--------------------------------

                                                      Moles in assemblage
Phase               SI  log IAP  log K(T, P)   Initial       Final       Delta

Celestite         0.00    -6.65     -6.65    1.000e+01   9.999e+00  -6.329e-04

-----------------------------Solution composition------------------------------

	Elements           Molality       Moles

	S                 6.329e-04   6.329e-04
	Sr                6.329e-04   6.329e-04

----------------------------Description of solution----------------------------

                                       pH  =   6.609      Charge balance
                                       pe  =  -1.185      Adjusted to redox equilibrium
      Specific Conductance (µS/cm,  50°C)  = 253
                          Density (g/cm³)  =   0.99667
                               Volume (L)  =   1.00345
                        Viscosity (mPa s)  =   0.55131
                        Activity of water  =   1.000
                 Ionic strength (mol/kgw)  =   2.343e-03
                       Mass of water (kg)  =   1.000e+00
                 Total alkalinity (eq/kg)  =  -6.382e-18
                         Temperature (°C)  =  50.00
                           Pressure (atm)  = 200.00
                  Electrical balance (eq)  =   7.933e-16
 Percent error, 100*(Cat-|An|)/(Cat+|An|)  =   0.00
                               Iterations  =  14
                                  Total H  = 1.110124e+02
                                  Total O  = 5.550875e+01

----------------------------Distribution of species----------------------------

                                               Log       Log       Log    mole V
   Species          Molality    Activity  Molality  Activity     Gamma   cm³/mol

   OH-             2.773e-07   2.623e-07    -6.557    -6.581    -0.024     -3.99
   H+              2.593e-07   2.463e-07    -6.586    -6.609    -0.022      0.00
   H2O             5.551e+01   1.000e+00     1.744    -0.000     0.000     18.08
H(0)          1.415e-14
   H2              7.073e-15   7.077e-15   -14.150   -14.150     0.000     16.37
O(0)          0.000e+00
   O2              0.000e+00   0.000e+00   -56.589   -56.589     0.000     31.50
S(-2)         9.828e-24
   HS-             4.925e-24   4.658e-24   -23.308   -23.332    -0.024     21.17
   H2S             4.903e-24   4.906e-24   -23.310   -23.309     0.000     38.43
   S-2             1.617e-29   1.300e-29   -28.791   -28.886    -0.095     (0)  
   (H2S)2          0.000e+00   0.000e+00   -47.544   -47.544     0.000     37.53
S(6)          6.329e-04
   SO4-2           5.857e-04   4.708e-04    -3.232    -3.327    -0.095     17.51
   SrSO4           4.716e-05   4.718e-05    -4.326    -4.326     0.000     25.37
   HSO4-           1.814e-08   1.716e-08    -7.741    -7.765    -0.024     40.78
Sr            6.329e-04
   Sr+2            5.857e-04   4.716e-04    -3.232    -3.326    -0.094    -16.85
   SrSO4           4.716e-05   4.718e-05    -4.326    -4.326     0.000     25.37
   SrOH+           1.047e-10   9.911e-11    -9.980   -10.004    -0.024     (0)  

------------------------------Saturation indices-------------------------------

  Phase               SI** log IAP   log K(323 K, 200 atm)

  Celestite         0.00     -6.65   -6.65  SrSO4
  H2(g)           -10.97    -14.15   -3.18  H2
  H2O(g)           -0.86     -0.00    0.86  H2O
  H2S(g)          -21.96    -29.94   -7.98  H2S
  O2(g)           -53.46    -56.59   -3.13  O2
  Sulfur          -16.68    -12.46    4.22  S

**For a gas, SI = log10(fugacity). Fugacity = pressure * phi / 1 atm.
  For ideal gases, phi = 1.

Reaction step 3.

Using solution 1.	
Using pure phase assemblage 1.	
Using temperature 1.	

-------------------------------Phase assemblage--------------------------------

                                                      Moles in assemblage
Phase               SI  log IAP  log K(T, P)   Initial       Final       Delta

Celestite         0.00    -6.82     -6.82    1.000e+01   9.999e+00  -5.174e-04

-----------------------------Solution composition------------------------------

	Elements           Molality       Moles

	S                 5.174e-04   5.174e-04
	Sr                5.174e-04   5.174e-04

----------------------------Description of solution----------------------------

                                       pH  =   6.331      Charge balance
                                       pe  =  -0.950      Adjusted to redox equilibrium
      Specific Conductance (µS/cm,  75°C)  = 295
                          Density (g/cm³)  =   0.98367
                               Volume (L)  =   1.01670
                        Viscosity (mPa s)  =   0.38321
                        Activity of water  =   1.000
                 Ionic strength (mol/kgw)  =   1.909e-03
                       Mass of water (kg)  =   1.000e+00
                 Total alkalinity (eq/kg)  =  -3.428e-18
                         Temperature (°C)  =  75.00
                           Pressure (atm)  = 200.00
                  Electrical balance (eq)  =   2.824e-16
 Percent error, 100*(Cat-|An|)/(Cat+|An|)  =   0.00
                               Iterations  =  14
                                  Total H  = 1.110124e+02
                                  Total O  = 5.550829e+01

----------------------------Distribution of species----------------------------

                                               Log       Log       Log    mole V
   Species          Molality    Activity  Molality  Activity     Gamma   cm³/mol

   OH-             5.460e-07   5.176e-07    -6.263    -6.286    -0.023     -5.08
   H+              4.904e-07   4.667e-07    -6.309    -6.331    -0.022      0.00
   H2O             5.551e+01   1.000e+00     1.744    -0.000     0.000     18.32
H(0)          1.415e-14
   H2              7.073e-15   7.076e-15   -14.150   -14.150     0.000     17.26
O(0)          0.000e+00
   O2              0.000e+00   0.000e+00   -50.326   -50.326     0.000     32.45
S(-2)         4.891e-26
   H2S             2.835e-26   2.836e-26   -25.547   -25.547     0.000     41.18
   HS-             2.056e-26   1.949e-26   -25.687   -25.710    -0.023     20.88
   S-2             1.351e-31   1.096e-31   -30.869   -30.960    -0.091     (0)  
   (H2S)2          0.000e+00   0.000e+00   -51.864   -51.864     0.000     35.81
S(6)          5.174e-04
   SO4-2           4.771e-04   3.870e-04    -3.321    -3.412    -0.091     16.55
   SrSO4           4.021e-05   4.023e-05    -4.396    -4.395     0.000     25.71
   HSO4-           5.559e-08   5.272e-08    -7.255    -7.278    -0.023     40.85
Sr            5.174e-04
   Sr+2            4.772e-04   3.877e-04    -3.321    -3.412    -0.090    -17.49
   SrSO4           4.021e-05   4.023e-05    -4.396    -4.395     0.000     25.71
   SrOH+           4.514e-11   4.284e-11   -10.345   -10.368    -0.023     (0)  

------------------------------Saturation indices-------------------------------

  Phase               SI** log IAP   log K(348 K, 200 atm)

  Celestite         0.00     -6.82   -6.82  SrSO4
  H2(g)           -10.98    -14.15   -3.17  H2
  H2O(g)           -0.37     -0.00    0.37  H2O
  H2S(g)          -24.04    -32.04   -8.00  H2S
  O2(g)           -47.13    -50.33   -3.20  O2
  Sulfur          -18.54    -14.78    3.76  S

**For a gas, SI = log10(fugacity). Fugacity = pressure * phi / 1 atm.
  For ideal gases, phi = 1.

Reaction step 4.

Using solution 1.	
Using pure phase assemblage 1.	
Using temperature 1.	

-------------------------------Phase assemblage--------------------------------

                                                      Moles in assemblage
Phase               SI  log IAP  log K(T, P)   Initial       Final       Delta

Celestite        -0.00    -7.01     -7.01    1.000e+01   1.000e+01  -4.144e-04

-----------------------------Solution composition------------------------------

	Elements           Molality       Moles

	S                 4.144e-04   4.144e-04
	Sr                4.144e-04   4.144e-04

----------------------------Description of solution----------------------------

                                       pH  =   6.120      Charge balance
                                       pe  =  -0.775      Adjusted to redox equilibrium
      Specific Conductance (µS/cm, 100°C)  = 312
                          Density (g/cm³)  =   0.96771
                               Volume (L)  =   1.03345
                        Viscosity (mPa s)  =   0.28737
                        Activity of water  =   1.000
                 Ionic strength (mol/kgw)  =   1.531e-03
                       Mass of water (kg)  =   1.000e+00
                 Total alkalinity (eq/kg)  =   1.341e-17
                         Temperature (°C)  = 100.00
                           Pressure (atm)  = 200.00
                  Electrical balance (eq)  =  -8.191e-16
 Percent error, 100*(Cat-|An|)/(Cat+|An|)  =  -0.00
                               Iterations  =  14
                                  Total H  = 1.110124e+02
                                  Total O  = 5.550787e+01

----------------------------Distribution of species----------------------------

                                               Log       Log       Log    mole V
   Species          Molality    Activity  Molality  Activity     Gamma   cm³/mol

   OH-             9.455e-07   8.985e-07    -6.024    -6.046    -0.022     -6.71
   H+              7.949e-07   7.580e-07    -6.100    -6.120    -0.021      0.00
   H2O             5.551e+01   1.000e+00     1.744    -0.000     0.000     18.62
H(0)          1.414e-14
   H2              7.072e-15   7.075e-15   -14.150   -14.150     0.000     18.04
O(0)          0.000e+00
   O2              0.000e+00   0.000e+00   -45.173   -45.173     0.000     33.27
S(-2)         4.828e-28
   H2S             3.246e-28   3.247e-28   -27.489   -27.488     0.000     43.27
   HS-             1.581e-28   1.503e-28   -27.801   -27.823    -0.022     19.98
   S-2             2.019e-33   1.653e-33   -32.695   -32.782    -0.087     (0)  
   (H2S)2          0.000e+00   0.000e+00   -55.660   -55.660     0.000     33.42
S(6)          4.144e-04
   SO4-2           3.824e-04   3.131e-04    -3.417    -3.504    -0.087     13.84
   SrSO4           3.181e-05   3.182e-05    -4.497    -4.497     0.000     25.92
   HSO4-           1.506e-07   1.432e-07    -6.822    -6.844    -0.022     40.32
Sr            4.144e-04
   Sr+2            3.826e-04   3.136e-04    -3.417    -3.504    -0.086    -18.28
   SrSO4           3.181e-05   3.182e-05    -4.497    -4.497     0.000     25.92
   SrOH+           2.235e-11   2.126e-11   -10.651   -10.672    -0.022     (0)  

------------------------------Saturation indices-------------------------------

  Phase               SI** log IAP   log K(373 K, 200 atm)

  Celestite        -0.00     -7.01   -7.01  SrSO4
  H2(g)           -11.01    -14.15   -3.14  H2
  H2O(g)            0.05     -0.00   -0.05  H2O
  H2S(g)          -25.88    -33.94   -8.06  H2S
  O2(g)           -41.96    -45.17   -3.21  O2
  Sulfur          -20.16    -16.80    3.36  S

**For a gas, SI = log10(fugacity). Fugacity = pressure * phi / 1 atm.
  For ideal gases, phi = 1.

Reaction step 5.

Using solution 1.	
Using pure phase assemblage 1.	
Using temperature 1.	

-------------------------------Phase assemblage--------------------------------

                                                      Moles in assemblage
Phase               SI  log IAP  log K(T, P)   Initial       Final       Delta

Celestite        -0.00    -7.21     -7.21    1.000e+01   1.000e+01  -3.249e-04

-----------------------------Solution composition------------------------------

	Elements           Molality       Moles

	S                 3.249e-04   3.249e-04
	Sr                3.249e-04   3.249e-04

----------------------------Description of solution----------------------------

                                       pH  =   5.968      Charge balance
                                       pe  =  -0.655      Adjusted to redox equilibrium
      Specific Conductance (µS/cm, 125°C)  = 306
                          Density (g/cm³)  =   0.94908
                               Volume (L)  =   1.05372
                        Viscosity (mPa s)  =   0.22761
                        Activity of water  =   1.000
                 Ionic strength (mol/kgw)  =   1.207e-03
                       Mass of water (kg)  =   1.000e+00
                 Total alkalinity (eq/kg)  =   4.484e-17
                         Temperature (°C)  = 125.00
                           Pressure (atm)  = 200.00
                  Electrical balance (eq)  =  -1.986e-15
 Percent error, 100*(Cat-|An|)/(Cat+|An|)  =  -0.00
                               Iterations  =  14
                                  Total H  = 1.110124e+02
                                  Total O  = 5.550752e+01

----------------------------Distribution of species----------------------------

                                               Log       Log       Log    mole V
   Species          Molality    Activity  Molality  Activity     Gamma   cm³/mol

   OH-             1.489e-06   1.418e-06    -5.827    -5.848    -0.021     -9.06
   H+              1.127e-06   1.077e-06    -5.948    -5.968    -0.020      0.00
   H2O             5.551e+01   1.000e+00     1.744    -0.000     0.000     18.98
H(0)          1.415e-14
   H2              7.073e-15   7.075e-15   -14.150   -14.150     0.000     18.84
O(0)          0.000e+00
   O2              0.000e+00   0.000e+00   -40.982   -40.982     0.000     34.10
S(-2)         8.311e-30
   H2S             6.335e-30   6.337e-30   -29.198   -29.198     0.000     45.12
   HS-             1.976e-30   1.883e-30   -29.704   -29.725    -0.021     18.45
   S-2             4.829e-35   3.991e-35   -34.316   -34.399    -0.083     (0)  
   (H2S)2          0.000e+00   0.000e+00   -59.046   -59.046     0.000     30.11
S(6)          3.249e-04
   SO4-2           3.011e-04   2.489e-04    -3.521    -3.604    -0.083      9.26
   SrSO4           2.344e-05   2.345e-05    -4.630    -4.630     0.000     26.08
   HSO4-           3.619e-07   3.449e-07    -6.441    -6.462    -0.021     39.21
Sr            3.249e-04
   Sr+2            3.015e-04   2.494e-04    -3.521    -3.603    -0.082    -19.33
   SrSO4           2.344e-05   2.345e-05    -4.630    -4.630     0.000     26.08
   SrOH+           1.243e-11   1.185e-11   -10.905   -10.926    -0.021     (0)  

------------------------------Saturation indices-------------------------------

  Phase               SI** log IAP   log K(398 K, 200 atm)

  Celestite        -0.00     -7.21   -7.21  SrSO4
  H2(g)           -11.07    -14.15   -3.08  H2
  H2O(g)            0.40     -0.00   -0.40  H2O
  H2S(g)          -27.54    -35.69   -8.15  H2S
  O2(g)           -37.80    -40.98   -3.18  O2
  Sulfur          -21.59    -18.57    3.01  S

**For a gas, SI = log10(fugacity). Fugacity = pressure * phi / 1 atm.
  For ideal gases, phi = 1.

Reaction step 6.

Using solution 1.	
Using pure phase assemblage 1.	
Using temperature 1.	

-------------------------------Phase assemblage--------------------------------

                                                      Moles in assemblage
Phase               SI  log IAP  log K(T, P)   Initial       Final       Delta

Celestite        -0.00    -7.42     -7.42    1.000e+01   1.000e+01  -2.499e-04

-----------------------------Solution composition------------------------------

	Elements           Molality       Moles

	S                 2.499e-04   2.499e-04
	Sr                2.499e-04   2.499e-04

----------------------------Description of solution----------------------------

                                       pH  =   5.868      Charge balance
                                       pe  =  -0.583      Adjusted to redox equilibrium
      Specific Conductance (µS/cm, 150°C)  = 283
                          Density (g/cm³)  =   0.92792
                               Volume (L)  =   1.07773
                        Viscosity (mPa s)  =   0.18781
                        Activity of water  =   1.000
                 Ionic strength (mol/kgw)  =   9.356e-04
                       Mass of water (kg)  =   1.000e+00
                 Total alkalinity (eq/kg)  =   1.314e-17
                         Temperature (°C)  = 150.00
                           Pressure (atm)  = 200.00
                  Electrical balance (eq)  =   8.410e-18
 Percent error, 100*(Cat-|An|)/(Cat+|An|)  =   0.00
                               Iterations  =  14
                                  Total H  = 1.110124e+02
                                  Total O  = 5.550722e+01

----------------------------Distribution of species----------------------------

                                               Log       Log       Log    mole V
   Species          Molality    Activity  Molality  Activity     Gamma   cm³/mol

   OH-             2.186e-06   2.088e-06    -5.660    -5.680    -0.020    -12.40
   H+              1.415e-06   1.355e-06    -5.849    -5.868    -0.019      0.00
   H2O             5.551e+01   1.000e+00     1.744    -0.000     0.000     19.42
H(0)          1.414e-14
   H2              7.072e-15   7.074e-15   -14.150   -14.150     0.000     19.78
O(0)          4.656e-38
   O2              2.328e-38   2.329e-38   -37.633   -37.633     0.000     35.05
S(-2)         2.226e-31
   H2S             1.863e-31   1.864e-31   -30.730   -30.730     0.000     46.99
   HS-             3.631e-32   3.468e-32   -31.440   -31.460    -0.020     16.09
   S-2             1.693e-36   1.413e-36   -35.771   -35.850    -0.079     (0)  
   (H2S)2          0.000e+00   0.000e+00   -62.117   -62.117     0.000     25.45
S(6)          2.499e-04
   SO4-2           2.330e-04   1.944e-04    -3.633    -3.711    -0.079      2.27
   SrSO4           1.615e-05   1.615e-05    -4.792    -4.792     0.000     26.20
   HSO4-           7.711e-07   7.365e-07    -6.113    -6.133    -0.020     37.40
Sr            2.499e-04
   Sr+2            2.337e-04   1.952e-04    -3.631    -3.710    -0.078    -20.77
   SrSO4           1.615e-05   1.615e-05    -4.792    -4.792     0.000     26.20
   SrOH+           7.671e-12   7.332e-12   -11.115   -11.135    -0.020     (0)  

------------------------------Saturation indices-------------------------------

  Phase               SI** log IAP   log K(423 K, 200 atm)

  Celestite        -0.00     -7.42   -7.42  SrSO4
  H2(g)           -11.15    -14.15   -3.00  H2
  H2O(g)            0.71     -0.00   -0.71  H2O
  H2S(g)          -29.05    -37.33   -8.27  H2S
  O2(g)           -34.51    -37.63   -3.13  O2
  Sulfur          -22.87    -20.16    2.71  S

**For a gas, SI = log10(fugacity). Fugacity = pressure * phi / 1 atm.
  For ideal gases, phi = 1.

Reaction step 7.

Using solution 1.	
Using pure phase assemblage 1.	
Using temperature 1.	

-------------------------------Phase assemblage--------------------------------

                                                      Moles in assemblage
Phase               SI  log IAP  log K(T, P)   Initial       Final       Delta

Celestite         0.00    -7.65     -7.65    1.000e+01   1.000e+01  -1.892e-04

-----------------------------Solution composition------------------------------

	Elements           Molality       Moles

	S                 1.892e-04   1.892e-04
	Sr                1.892e-04   1.892e-04

----------------------------Description of solution----------------------------

                                       pH  =   5.817      Charge balance
                                       pe  =   3.655      Adjusted to redox equilibrium
      Specific Conductance (µS/cm, 175°C)  = 248
                          Density (g/cm³)  =   0.90425
                               Volume (L)  =   1.10593
                        Viscosity (mPa s)  =   0.15985
                        Activity of water  =   1.000
                 Ionic strength (mol/kgw)  =   7.151e-04
                       Mass of water (kg)  =   1.000e+00
                 Total alkalinity (eq/kg)  =  -7.486e-16
                         Temperature (°C)  = 175.00
                           Pressure (atm)  = 200.00
                  Electrical balance (eq)  =   2.268e-14
 Percent error, 100*(Cat-|An|)/(Cat+|An|)  =   0.00
                               Iterations  =   9
                                  Total H  = 1.110124e+02
                                  Total O  = 5.550697e+01

----------------------------Distribution of species----------------------------

                                               Log       Log       Log    mole V
   Species          Molality    Activity  Molality  Activity     Gamma   cm³/mol

   OH-             3.044e-06   2.915e-06    -5.517    -5.535    -0.019    -17.20
   H+              1.588e-06   1.524e-06    -5.799    -5.817    -0.018      0.00
   H2O             5.551e+01   1.000e+00     1.744    -0.000     0.000     19.92
H(0)          5.327e-23
   H2              2.663e-23   2.664e-23   -22.575   -22.574     0.000     20.97
O(0)          1.327e-18
   O2              6.635e-19   6.636e-19   -18.178   -18.178     0.000     36.25
S(-2)         0.000e+00
   H2S             0.000e+00   0.000e+00   -65.821   -65.821     0.000     49.14
   HS-             0.000e+00   0.000e+00   -66.739   -66.758    -0.019     12.58
   S-2             0.000e+00   0.000e+00   -70.786   -70.861    -0.074     (0)  
   (H2S)2          0.000e+00   0.000e+00  -132.340  -132.340     0.000     18.82
S(6)          1.892e-04
   SO4-2           1.773e-04   1.493e-04    -3.751    -3.826    -0.074     -8.12
   SrSO4           1.042e-05   1.043e-05    -4.982    -4.982     0.000     26.29
   HSO4-           1.455e-06   1.394e-06    -5.837    -5.856    -0.019     34.62
Sr            1.892e-04
   Sr+2            1.787e-04   1.507e-04    -3.748    -3.822    -0.074    -22.80
   SrSO4           1.042e-05   1.043e-05    -4.982    -4.982     0.000     26.29
   SrOH+           5.210e-12   4.992e-12   -11.283   -11.302    -0.019     (0)  

------------------------------Saturation indices-------------------------------

  Phase               SI** log IAP   log K(448 K, 200 atm)

  Celestite         0.00     -7.65   -7.65  SrSO4
  H2(g)           -19.67    -22.57   -2.91  H2
  H2O(g)            0.97     -0.00   -0.97  H2O
  H2S(g)          -64.15    -72.57   -8.42  H2S
  O2(g)           -15.13    -18.18   -3.05  O2
  Sulfur          -49.31    -46.88    2.44  S

**For a gas, SI = log10(fugacity). Fugacity = pressure * phi / 1 atm.
  For ideal gases, phi = 1.

Reaction step 8.

Using solution 1.	
Using pure phase assemblage 1.	
Using temperature 1.	

-------------------------------Phase assemblage--------------------------------

                                                      Moles in assemblage
Phase               SI  log IAP  log K(T, P)   Initial       Final       Delta

Celestite        -0.00    -7.88     -7.88    1.000e+01   1.000e+01  -1.419e-04

-----------------------------Solution composition------------------------------

	Elements           Molality       Moles

	S                 1.419e-04   1.419e-04
	Sr                1.419e-04   1.419e-04

----------------------------Description of solution----------------------------

                                       pH  =   5.809      Charge balance
                                       pe  =   4.315      Adjusted to redox equilibrium
      Specific Conductance (µS/cm, 200°C)  = 211
                          Density (g/cm³)  =   0.87802
                               Volume (L)  =   1.13896
                        Viscosity (mPa s)  =   0.13930
                        Activity of water  =   1.000
                 Ionic strength (mol/kgw)  =   5.413e-04
                       Mass of water (kg)  =   1.000e+00
                 Total alkalinity (eq/kg)  =   2.000e-17
                         Temperature (°C)  = 200.00
                           Pressure (atm)  = 200.00
                  Electrical balance (eq)  =   5.645e-19
 Percent error, 100*(Cat-|An|)/(Cat+|An|)  =   0.00
                               Iterations  =  10
                                  Total H  = 1.110124e+02
                                  Total O  = 5.550678e+01

----------------------------Distribution of species----------------------------

                                               Log       Log       Log    mole V
   Species          Molality    Activity  Molality  Activity     Gamma   cm³/mol

   OH-             4.054e-06   3.891e-06    -5.392    -5.410    -0.018    -24.26
   H+              1.613e-06   1.551e-06    -5.792    -5.809    -0.017      0.00
   H2O             5.551e+01   1.000e+00     1.744    -0.000     0.000     20.52
H(0)          2.372e-24
   H2              1.186e-24   1.186e-24   -23.926   -23.926     0.000     22.61
O(0)          5.895e-14
   O2              2.947e-14   2.948e-14   -13.531   -13.530     0.000     37.88
S(-2)         0.000e+00
   H2S             0.000e+00   0.000e+00   -72.515   -72.515     0.000     51.86
   HS-             0.000e+00   0.000e+00   -73.638   -73.656    -0.018      7.32
   S-2             0.000e+00   0.000e+00   -77.398   -77.468    -0.070     (0)  
   (H2S)2          0.000e+00   0.000e+00  -145.791  -145.791     0.000      9.10
S(6)          1.419e-04
   SO4-2           1.331e-04   1.132e-04    -3.876    -3.946    -0.071    -23.67
   SrSO4           6.318e-06   6.319e-06    -5.199    -5.199     0.000     26.36
   HSO4-           2.441e-06   2.343e-06    -5.612    -5.630    -0.018     30.40
Sr            1.419e-04
   Sr+2            1.355e-04   1.153e-04    -3.868    -3.938    -0.070    -25.76
   SrSO4           6.318e-06   6.319e-06    -5.199    -5.199     0.000     26.36
   SrOH+           3.865e-12   3.712e-12   -11.413   -11.430    -0.018     (0)  

------------------------------Saturation indices-------------------------------

  Phase               SI** log IAP   log K(473 K, 200 atm)

  Celestite        -0.00     -7.88   -7.88  SrSO4
  H2(g)           -21.12    -23.93   -2.81  H2
  H2O(g)            1.20     -0.00   -1.20  H2O
  H2S(g)          -70.88    -79.47   -8.59  H2S
  O2(g)           -10.58    -13.53   -2.95  O2
  Sulfur          -54.46    -52.27    2.19  S

**For a gas, SI = log10(fugacity). Fugacity = pressure * phi / 1 atm.
  For ideal gases, phi = 1.

Reaction step 9.

Using solution 1.	
Using pure phase assemblage 1.	
Using temperature 1.	

-------------------------------Phase assemblage--------------------------------

                                                      Moles in assemblage
Phase               SI  log IAP  log K(T, P)   Initial       Final       Delta

Celestite        -0.00    -8.13     -8.13    1.000e+01   1.000e+01  -1.065e-04

-----------------------------Solution composition------------------------------

	Elements           Molality       Moles

	S                 1.065e-04   1.065e-04
	Sr                1.065e-04   1.065e-04

----------------------------Description of solution----------------------------

                                       pH  =   5.839      Charge balance
                                       pe  =   4.293      Adjusted to redox equilibrium
      Specific Conductance (µS/cm, 225°C)  = 175
                          Density (g/cm³)  =   0.84896
                               Volume (L)  =   1.17794
                        Viscosity (mPa s)  =   0.12340 (solute contributions limited to 200 °C)
                        Activity of water  =   1.000
                 Ionic strength (mol/kgw)  =   4.093e-04
                       Mass of water (kg)  =   1.000e+00
                 Total alkalinity (eq/kg)  =   7.513e-16
                         Temperature (°C)  = 225.00
                           Pressure (atm)  = 200.00
                  Electrical balance (eq)  =   9.169e-17
 Percent error, 100*(Cat-|An|)/(Cat+|An|)  =   0.00
                               Iterations  =  10
                                  Total H  = 1.110124e+02
                                  Total O  = 5.550664e+01

----------------------------Distribution of species----------------------------

                                               Log       Log       Log    mole V
   Species          Molality    Activity  Molality  Activity     Gamma   cm³/mol

   OH-             5.172e-06   4.974e-06    -5.286    -5.303    -0.017    -34.99
   H+              1.505e-06   1.450e-06    -5.822    -5.839    -0.016      0.00
   H2O             5.551e+01   1.000e+00     1.744    -0.000     0.000     21.22
H(0)          2.079e-24
   H2              1.040e-24   1.040e-24   -23.983   -23.983     0.000     25.01
O(0)          1.721e-12
   O2              8.603e-13   8.604e-13   -12.065   -12.065     0.000     40.26
S(-2)         0.000e+00
   H2S             0.000e+00   0.000e+00   -73.946   -73.946     0.000     55.64
   HS-             0.000e+00   0.000e+00   -75.269   -75.286    -0.017     -0.76
   S-2             0.000e+00   0.000e+00   -78.739   -78.806    -0.067     (0)  
   (H2S)2          0.000e+00   0.000e+00  -148.728  -148.728     0.000     -5.64
S(6)          1.065e-04
   SO4-2           9.921e-05   8.500e-05    -4.003    -4.071    -0.067    -47.54
   HSO4-           3.667e-06   3.527e-06    -5.436    -5.453    -0.017     23.88
   SrSO4           3.602e-06   3.603e-06    -5.443    -5.443     0.000     26.43
Sr            1.065e-04
   Sr+2            1.029e-04   8.819e-05    -3.988    -4.055    -0.067    -30.24
   SrSO4           3.602e-06   3.603e-06    -5.443    -5.443     0.000     26.43
   SrOH+           3.103e-12   2.986e-12   -11.508   -11.525    -0.017     (0)  

------------------------------Saturation indices-------------------------------

  Phase               SI** log IAP   log K(498 K, 200 atm)

  Celestite        -0.00     -8.13   -8.13  SrSO4
  H2(g)           -21.29    -23.98   -2.69  H2
  H2O(g)            1.40     -0.00   -1.40  H2O
  H2S(g)          -72.35    -81.12   -8.78  H2S
  O2(g)            -9.22    -12.07   -2.84  O2
  Sulfur          -55.65    -53.68    1.97  S

**For a gas, SI = log10(fugacity). Fugacity = pressure * phi / 1 atm.
  For ideal gases, phi = 1.

Reaction step 10.

Using solution 1.	
Using pure phase assemblage 1.	
Using temperature 1.	

-------------------------------Phase assemblage--------------------------------

                                                      Moles in assemblage
Phase               SI  log IAP  log K(T, P)   Initial       Final       Delta

Celestite        -0.00    -8.36     -8.36    1.000e+01   1.000e+01  -8.136e-05

-----------------------------Solution composition------------------------------

	Elements           Molality       Moles

	S                 8.136e-05   8.136e-05
	Sr                8.136e-05   8.136e-05

----------------------------Description of solution----------------------------

                                       pH  =   5.896      Charge balance
                                       pe  =   4.238      Adjusted to redox equilibrium
      Specific Conductance (µS/cm, 250°C)  = 145
                          Density (g/cm³)  =   0.81648
                               Volume (L)  =   1.22479
                        Viscosity (mPa s)  =   0.11075 (solute contributions limited to 200 °C)
                        Activity of water  =   1.000
                 Ionic strength (mol/kgw)  =   3.140e-04
                       Mass of water (kg)  =   1.000e+00
                 Total alkalinity (eq/kg)  =   7.483e-15
                         Temperature (°C)  = 250.00
                           Pressure (atm)  = 200.00
                  Electrical balance (eq)  =  -1.185e-14
 Percent error, 100*(Cat-|An|)/(Cat+|An|)  =  -0.00
                               Iterations  =  10
                                  Total H  = 1.110124e+02
                                  Total O  = 5.550654e+01

----------------------------Distribution of species----------------------------

                                               Log       Log       Log    mole V
   Species          Molality    Activity  Molality  Activity     Gamma   cm³/mol

   OH-             6.311e-06   6.078e-06    -5.200    -5.216    -0.016    -52.13
   H+              1.317e-06   1.270e-06    -5.880    -5.896    -0.016      0.00
   H2O             5.551e+01   1.000e+00     1.744    -0.000     0.000     22.07
H(0)          1.862e-24
   H2              9.310e-25   9.310e-25   -24.031   -24.031     0.000     28.74
O(0)          1.391e-11
   O2              6.956e-12   6.957e-12   -11.158   -11.158     0.000     43.95
S(-2)         0.000e+00
   H2S             0.000e+00   0.000e+00   -75.263   -75.263     0.000     61.35
   HS-             0.000e+00   0.000e+00   -76.779   -76.796    -0.016    -13.74
   S-2             0.000e+00   0.000e+00   -79.966   -80.031    -0.065     (0)  
   (H2S)2          0.000e+00   0.000e+00  -151.438  -151.438     0.000    -29.16
S(6)          8.136e-05
   SO4-2           7.443e-05   6.412e-05    -4.128    -4.193    -0.065    -85.87
   HSO4-           4.994e-06   4.809e-06    -5.302    -5.318    -0.016     13.35
   SrSO4           1.935e-06   1.935e-06    -5.713    -5.713     0.000     26.48
Sr            8.136e-05
   Sr+2            7.942e-05   6.845e-05    -4.100    -4.165    -0.065    -37.38
   SrSO4           1.935e-06   1.935e-06    -5.713    -5.713     0.000     26.48
   SrOH+           2.672e-12   2.574e-12   -11.573   -11.589    -0.016     (0)  

------------------------------Saturation indices-------------------------------

  Phase               SI** log IAP   log K(523 K, 200 atm)

  Celestite        -0.00     -8.36   -8.36  SrSO4
  H2(g)           -21.46    -24.03   -2.57  H2
  H2O(g)            1.57     -0.00   -1.57  H2O
  H2S(g)          -73.72    -82.69   -8.97  H2S
  O2(g)            -8.43    -11.16   -2.72  O2
  Sulfur          -56.76    -54.99    1.76  S

**For a gas, SI = log10(fugacity). Fugacity = pressure * phi / 1 atm.
  For ideal gases, phi = 1.

------------------
End of simulation.
------------------

------------------------------------
Reading input data for simulation 2.
------------------------------------

