WARNING: Database file from DATABASE keyword is used; command line argument ignored.
   Input file: SrSO4_P
  Output file: SrSO4_P.out
Database file: ../database/phreeqc.dat

------------------
Reading data base.
------------------

	SOLUTION_MASTER_SPECIES
	SOLUTION_SPECIES
	PHASES
	GAS_BINARY_PARAMETERS
	EXCHANGE_MASTER_SPECIES
	EXCHANGE_SPECIES
	SURFACE_MASTER_SPECIES
	SURFACE_SPECIES
	MEAN_GAMMAS
	RATES
	END
------------------------------------
Reading input data for simulation 1.
------------------------------------

	DATABASE ../database/phreeqc.dat
	SELECTED_OUTPUT 101
	    file                 SrSO4_P_101.sel
	USER_PUNCH 101
	    headings Mu SC
	    start
	10 PUNCH STR_F$(MU, 20, 12)
	20 PUNCH STR_F$(SC, 20, 10)
	    end
	SOLUTION 1
	 pH 7 charge
	 temp 25
	EQUILIBRIUM_PHASES
	 Celestite
	REACTION_PRESSURE
	 1 600 in 10
	USER_GRAPH
	 -plot_csv_file SrSO4_P.dat
	 -axis_titles "Pressure / bar" "Celestite Solubility / (mol/kgw)"
	 -connect_simulations false
	 10 graph_x pressure * 1.013
	 20 graph_y tot("Sr")
	END
-------------------------------------------
Beginning of initial solution calculations.
-------------------------------------------

Initial solution 1.	

-----------------------------Solution composition------------------------------

	Elements           Molality       Moles

	Pure water     

----------------------------Description of solution----------------------------

                                       pH  =   6.997      Charge balance
                                       pe  =   4.000    
      Specific Conductance (µS/cm,  25°C)  = 0
                          Density (g/cm³)  =   0.99704
                               Volume (L)  =   1.00297
                        Viscosity (mPa s)  =   0.89002
                        Activity of water  =   1.000
                 Ionic strength (mol/kgw)  =   1.006e-07
                       Mass of water (kg)  =   1.000e+00
                 Total alkalinity (eq/kg)  =   3.040e-17
                         Temperature (°C)  =  25.00
                  Electrical balance (eq)  =  -3.040e-17
 Percent error, 100*(Cat-|An|)/(Cat+|An|)  =  -0.00
                               Iterations  =   2
                                  Total H  = 1.110124e+02
                                  Total O  = 5.550622e+01

----------------------------Distribution of species----------------------------

                                               Log       Log       Log    mole V
   Species          Molality    Activity  Molality  Activity     Gamma   cm³/mol

   OH-             1.006e-07   1.006e-07    -6.997    -6.997    -0.000     -4.14
   H+              1.006e-07   1.006e-07    -6.997    -6.997    -0.000      0.00
   H2O             5.551e+01   1.000e+00     1.744    -0.000     0.000     18.07
H(0)          1.433e-25
   H2              7.166e-26   7.166e-26   -25.145   -25.145     0.000     14.99
O(0)          0.000e+00
   O2              0.000e+00   0.000e+00   -42.073   -42.073     0.000     30.40

------------------------------Saturation indices-------------------------------

  Phase               SI** log IAP   log K(298 K,   1 atm)

  H2(g)           -22.05    -25.14   -3.10  H2
  H2O(g)           -1.50     -0.00    1.50  H2O
  O2(g)           -39.18    -42.07   -2.89  O2

**For a gas, SI = log10(fugacity). Fugacity = pressure * phi / 1 atm.
  For ideal gases, phi = 1.

-----------------------------------------
Beginning of batch-reaction calculations.
-----------------------------------------

Reaction step 1.

Using solution 1.	
Using pure phase assemblage 1.	
Using pressure 1.	

-------------------------------Phase assemblage--------------------------------

                                                      Moles in assemblage
Phase               SI  log IAP  log K(T, P)   Initial       Final       Delta

Celestite         0.00    -6.66     -6.66    1.000e+01   9.999e+00  -6.205e-04

-----------------------------Solution composition------------------------------

	Elements           Molality       Moles

	S                 6.205e-04   6.205e-04
	Sr                6.205e-04   6.205e-04

----------------------------Description of solution----------------------------

                                       pH  =   7.006      Charge balance
                                       pe  =  10.247      Adjusted to redox equilibrium
      Specific Conductance (µS/cm,  25°C)  = 153
                          Density (g/cm³)  =   0.99716
                               Volume (L)  =   1.00296
                        Viscosity (mPa s)  =   0.89097
                        Activity of water  =   1.000
                 Ionic strength (mol/kgw)  =   2.311e-03
                       Mass of water (kg)  =   1.000e+00
                 Total alkalinity (eq/kg)  =   3.018e-17
                         Temperature (°C)  =  25.00
                  Electrical balance (eq)  =   1.887e-15
 Percent error, 100*(Cat-|An|)/(Cat+|An|)  =   0.00
                               Iterations  =  14
                                  Total H  = 1.110124e+02
                                  Total O  = 5.550870e+01

----------------------------Distribution of species----------------------------

                                               Log       Log       Log    mole V
   Species          Molality    Activity  Molality  Activity     Gamma   cm³/mol

   OH-             1.082e-07   1.025e-07    -6.966    -6.989    -0.023     -4.09
   H+              1.037e-07   9.870e-08    -6.984    -7.006    -0.021      0.00
   H2O             5.551e+01   1.000e+00     1.744    -0.000     0.000     18.07
H(0)          4.410e-38
   H2              2.205e-38   2.206e-38   -37.657   -37.656     0.000     14.99
O(0)          1.782e-17
   O2              8.910e-18   8.914e-18   -17.050   -17.050     0.000     30.40
S(-2)         0.000e+00
   HS-             0.000e+00   0.000e+00  -114.687  -114.710    -0.023     20.62
   H2S             0.000e+00   0.000e+00  -114.775  -114.774     0.000     36.27
   S-2             0.000e+00   0.000e+00  -120.532  -120.623    -0.091     (0)  
   (H2S)2          0.000e+00   0.000e+00  -230.827  -230.827     0.000     30.09
S(6)          6.205e-04
   SO4-2           5.776e-04   4.685e-04    -3.238    -3.329    -0.091     14.57
   SrSO4           4.284e-05   4.286e-05    -4.368    -4.368     0.000     24.24
   HSO4-           4.740e-09   4.495e-09    -8.324    -8.347    -0.023     40.29
Sr            6.205e-04
   Sr+2            5.776e-04   4.692e-04    -3.238    -3.329    -0.090    -17.94
   SrSO4           4.284e-05   4.286e-05    -4.368    -4.368     0.000     24.24
   SrOH+           2.569e-10   2.438e-10    -9.590    -9.613    -0.023     (0)  

------------------------------Saturation indices-------------------------------

  Phase               SI** log IAP   log K(298 K,   1 atm)

  Celestite         0.00     -6.66   -6.66  SrSO4
  H2(g)           -34.56    -37.66   -3.10  H2
  H2O(g)           -1.50     -0.00    1.50  H2O
  H2S(g)         -113.78   -121.72   -7.94  H2S
  O2(g)           -14.16    -17.05   -2.89  O2
  Sulfur          -85.15    -80.27    4.88  S

**For a gas, SI = log10(fugacity). Fugacity = pressure * phi / 1 atm.
  For ideal gases, phi = 1.

Reaction step 2.

Using solution 1.	
Using pure phase assemblage 1.	
Using pressure 1.	

-------------------------------Phase assemblage--------------------------------

                                                      Moles in assemblage
Phase               SI  log IAP  log K(T, P)   Initial       Final       Delta

Celestite         0.00    -6.60     -6.60    1.000e+01   9.999e+00  -6.665e-04

-----------------------------Solution composition------------------------------

	Elements           Molality       Moles

	S                 6.665e-04   6.665e-04
	Sr                6.665e-04   6.665e-04

----------------------------Description of solution----------------------------

                                       pH  =   6.993      Charge balance
                                       pe  =  10.260      Adjusted to redox equilibrium
      Specific Conductance (µS/cm,  25°C)  = 165
                          Density (g/cm³)  =   1.00015
                               Volume (L)  =   0.99997
                        Viscosity (mPa s)  =   0.89016
                        Activity of water  =   1.000
                 Ionic strength (mol/kgw)  =   2.484e-03
                       Mass of water (kg)  =   1.000e+00
                 Total alkalinity (eq/kg)  =   2.772e-17
                         Temperature (°C)  =  25.00
                           Pressure (atm)  = 67.56
                  Electrical balance (eq)  =   1.754e-15
 Percent error, 100*(Cat-|An|)/(Cat+|An|)  =   0.00
                               Iterations  =  14
                                  Total H  = 1.110124e+02
                                  Total O  = 5.550888e+01

----------------------------Distribution of species----------------------------

                                               Log       Log       Log    mole V
   Species          Molality    Activity  Molality  Activity     Gamma   cm³/mol

   OH-             1.116e-07   1.056e-07    -6.952    -6.976    -0.024     -3.84
   H+              1.070e-07   1.017e-07    -6.971    -6.993    -0.022      0.00
   H2O             5.551e+01   1.000e+00     1.744    -0.000     0.000     18.02
H(0)          4.239e-38
   H2              2.119e-38   2.121e-38   -37.674   -37.674     0.000     15.04
O(0)          1.805e-17
   O2              9.026e-18   9.031e-18   -17.045   -17.044     0.000     30.30
S(-2)         0.000e+00
   HS-             0.000e+00   0.000e+00  -114.734  -114.758    -0.024     20.65
   H2S             0.000e+00   0.000e+00  -114.827  -114.827     0.000     35.52
   S-2             0.000e+00   0.000e+00  -120.565  -120.659    -0.094     (0)  
   (H2S)2          0.000e+00   0.000e+00  -230.887  -230.887     0.000     33.12
S(6)          6.665e-04
   SO4-2           6.210e-04   5.004e-04    -3.207    -3.301    -0.094     15.19
   SrSO4           4.547e-05   4.550e-05    -4.342    -4.342     0.000     24.43
   HSO4-           4.883e-09   4.623e-09    -8.311    -8.335    -0.024     40.15
Sr            6.665e-04
   Sr+2            6.210e-04   5.013e-04    -3.207    -3.300    -0.093    -17.35
   SrSO4           4.547e-05   4.550e-05    -4.342    -4.342     0.000     24.43
   SrOH+           2.673e-10   2.533e-10    -9.573    -9.596    -0.023     (0)  

------------------------------Saturation indices-------------------------------

  Phase               SI** log IAP   log K(298 K,  68 atm)

  Celestite         0.00     -6.60   -6.60  SrSO4
  H2(g)           -34.56    -37.67   -3.12  H2
  H2O(g)           -1.48     -0.00    1.48  H2O
  H2S(g)         -113.79   -121.75   -7.96  H2S
  O2(g)           -14.12    -17.04   -2.93  O2
  Sulfur          -85.16    -80.32    4.84  S

**For a gas, SI = log10(fugacity). Fugacity = pressure * phi / 1 atm.
  For ideal gases, phi = 1.

Reaction step 3.

Using solution 1.	
Using pure phase assemblage 1.	
Using pressure 1.	

-------------------------------Phase assemblage--------------------------------

                                                      Moles in assemblage
Phase               SI  log IAP  log K(T, P)   Initial       Final       Delta

Celestite         0.00    -6.55     -6.55    1.000e+01   9.999e+00  -7.138e-04

-----------------------------Solution composition------------------------------

	Elements           Molality       Moles

	S                 7.138e-04   7.138e-04
	Sr                7.138e-04   7.138e-04

----------------------------Description of solution----------------------------

                                       pH  =   6.980      Charge balance
                                       pe  =  10.268      Adjusted to redox equilibrium
      Specific Conductance (µS/cm,  25°C)  = 178
                          Density (g/cm³)  =   1.00313
                               Volume (L)  =   0.99701
                        Viscosity (mPa s)  =   0.88949
                        Activity of water  =   1.000
                 Ionic strength (mol/kgw)  =   2.662e-03
                       Mass of water (kg)  =   1.000e+00
                 Total alkalinity (eq/kg)  =   2.579e-17
                         Temperature (°C)  =  25.00
                           Pressure (atm)  = 134.11
                  Electrical balance (eq)  =   1.511e-15
 Percent error, 100*(Cat-|An|)/(Cat+|An|)  =   0.00
                               Iterations  =  14
                                  Total H  = 1.110124e+02
                                  Total O  = 5.550907e+01

----------------------------Distribution of species----------------------------

                                               Log       Log       Log    mole V
   Species          Molality    Activity  Molality  Activity     Gamma   cm³/mol

   OH-             1.151e-07   1.087e-07    -6.939    -6.964    -0.025     -3.61
   H+              1.103e-07   1.047e-07    -6.957    -6.980    -0.023      0.00
   H2O             5.551e+01   1.000e+00     1.744    -0.000     0.000     17.96
H(0)          4.154e-38
   H2              2.077e-38   2.078e-38   -37.683   -37.682     0.000     15.08
O(0)          1.758e-17
   O2              8.791e-18   8.796e-18   -17.056   -17.056     0.000     30.21
S(-2)         0.000e+00
   HS-             0.000e+00   0.000e+00  -114.747  -114.771    -0.025     20.68
   H2S             0.000e+00   0.000e+00  -114.843  -114.843     0.000     34.80
   S-2             0.000e+00   0.000e+00  -120.564  -120.661    -0.096     (0)  
   (H2S)2          0.000e+00   0.000e+00  -230.886  -230.885     0.000     36.00
S(6)          7.138e-04
   SO4-2           6.655e-04   5.329e-04    -3.177    -3.273    -0.097     15.77
   SrSO4           4.822e-05   4.825e-05    -4.317    -4.316     0.000     24.62
   HSO4-           5.030e-09   4.754e-09    -8.298    -8.323    -0.024     40.01
Sr            7.138e-04
   Sr+2            6.655e-04   5.339e-04    -3.177    -3.273    -0.096    -16.79
   SrSO4           4.822e-05   4.825e-05    -4.317    -4.316     0.000     24.62
   SrOH+           2.782e-10   2.632e-10    -9.556    -9.580    -0.024     (0)  

------------------------------Saturation indices-------------------------------

  Phase               SI** log IAP   log K(298 K, 134 atm)

  Celestite         0.00     -6.55   -6.55  SrSO4
  H2(g)           -34.55    -37.68   -3.14  H2
  H2O(g)           -1.46     -0.00    1.46  H2O
  H2S(g)         -113.77   -121.75   -7.99  H2S
  O2(g)           -14.09    -17.06   -2.96  O2
  Sulfur          -85.15    -80.35    4.80  S

**For a gas, SI = log10(fugacity). Fugacity = pressure * phi / 1 atm.
  For ideal gases, phi = 1.

Reaction step 4.

Using solution 1.	
Using pure phase assemblage 1.	
Using pressure 1.	

-------------------------------Phase assemblage--------------------------------

                                                      Moles in assemblage
Phase               SI  log IAP  log K(T, P)   Initial       Final       Delta

Celestite         0.00    -6.49     -6.49    1.000e+01   9.999e+00  -7.621e-04

-----------------------------Solution composition------------------------------

	Elements           Molality       Moles

	S                 7.621e-04   7.621e-04
	Sr                7.621e-04   7.621e-04

----------------------------Description of solution----------------------------

                                       pH  =   6.968      Charge balance
                                       pe  =  10.278      Adjusted to redox equilibrium
      Specific Conductance (µS/cm,  25°C)  = 191
                          Density (g/cm³)  =   1.00608
                               Volume (L)  =   0.99410
                        Viscosity (mPa s)  =   0.88897
                        Activity of water  =   1.000
                 Ionic strength (mol/kgw)  =   2.844e-03
                       Mass of water (kg)  =   1.000e+00
                 Total alkalinity (eq/kg)  =   2.557e-17
                         Temperature (°C)  =  25.00
                           Pressure (atm)  = 200.67
                  Electrical balance (eq)  =   1.115e-15
 Percent error, 100*(Cat-|An|)/(Cat+|An|)  =   0.00
                               Iterations  =  14
                                  Total H  = 1.110124e+02
                                  Total O  = 5.550927e+01

----------------------------Distribution of species----------------------------

                                               Log       Log       Log    mole V
   Species          Molality    Activity  Molality  Activity     Gamma   cm³/mol

   OH-             1.185e-07   1.118e-07    -6.926    -6.952    -0.025     -3.38
   H+              1.136e-07   1.077e-07    -6.944    -6.968    -0.023      0.00
   H2O             5.551e+01   1.000e+00     1.744    -0.000     0.000     17.91
H(0)          4.027e-38
   H2              2.014e-38   2.015e-38   -37.696   -37.696     0.000     15.12
O(0)          1.748e-17
   O2              8.742e-18   8.748e-18   -17.058   -17.058     0.000     30.12
S(-2)         0.000e+00
   HS-             0.000e+00   0.000e+00  -114.778  -114.803    -0.025     20.71
   H2S             0.000e+00   0.000e+00  -114.877  -114.877     0.000     34.11
   S-2             0.000e+00   0.000e+00  -120.581  -120.680    -0.099     (0)  
   (H2S)2          0.000e+00   0.000e+00  -230.927  -230.927     0.000     38.75
S(6)          7.621e-04
   SO4-2           7.110e-04   5.658e-04    -3.148    -3.247    -0.099     16.33
   SrSO4           5.109e-05   5.112e-05    -4.292    -4.291     0.000     24.80
   HSO4-           5.181e-09   4.889e-09    -8.286    -8.311    -0.025     39.88
Sr            7.621e-04
   Sr+2            7.110e-04   5.670e-04    -3.148    -3.246    -0.098    -16.26
   SrSO4           5.109e-05   5.112e-05    -4.292    -4.291     0.000     24.80
   SrOH+           2.897e-10   2.736e-10    -9.538    -9.563    -0.025     (0)  

------------------------------Saturation indices-------------------------------

  Phase               SI** log IAP   log K(298 K, 201 atm)

  Celestite         0.00     -6.49   -6.49  SrSO4
  H2(g)           -34.54    -37.70   -3.15  H2
  H2O(g)           -1.44     -0.00    1.44  H2O
  H2S(g)         -113.76   -121.77   -8.01  H2S
  O2(g)           -14.06    -17.06   -3.00  O2
  Sulfur          -85.15    -80.38    4.76  S

**For a gas, SI = log10(fugacity). Fugacity = pressure * phi / 1 atm.
  For ideal gases, phi = 1.

Reaction step 5.

Using solution 1.	
Using pure phase assemblage 1.	
Using pressure 1.	

-------------------------------Phase assemblage--------------------------------

                                                      Moles in assemblage
Phase               SI  log IAP  log K(T, P)   Initial       Final       Delta

Celestite         0.00    -6.44     -6.44    1.000e+01   9.999e+00  -8.116e-04

-----------------------------Solution composition------------------------------

	Elements           Molality       Moles

	S                 8.116e-04   8.116e-04
	Sr                8.116e-04   8.116e-04

----------------------------Description of solution----------------------------

                                       pH  =   6.956      Charge balance
                                       pe  =  10.290      Adjusted to redox equilibrium
      Specific Conductance (µS/cm,  25°C)  = 204
                          Density (g/cm³)  =   1.00899
                               Volume (L)  =   0.99123
                        Viscosity (mPa s)  =   0.88860
                        Activity of water  =   1.000
                 Ionic strength (mol/kgw)  =   3.030e-03
                       Mass of water (kg)  =   1.000e+00
                 Total alkalinity (eq/kg)  =   2.763e-17
                         Temperature (°C)  =  25.00
                           Pressure (atm)  = 267.22
                  Electrical balance (eq)  =   5.270e-16
 Percent error, 100*(Cat-|An|)/(Cat+|An|)  =   0.00
                               Iterations  =  14
                                  Total H  = 1.110124e+02
                                  Total O  = 5.550946e+01

----------------------------Distribution of species----------------------------

                                               Log       Log       Log    mole V
   Species          Molality    Activity  Molality  Activity     Gamma   cm³/mol

   OH-             1.220e-07   1.149e-07    -6.914    -6.940    -0.026     -3.16
   H+              1.170e-07   1.107e-07    -6.932    -6.956    -0.024      0.00
   H2O             5.551e+01   1.000e+00     1.744    -0.000     0.000     17.86
H(0)          3.863e-38
   H2              1.932e-38   1.933e-38   -37.714   -37.714     0.000     15.16
O(0)          1.775e-17
   O2              8.876e-18   8.882e-18   -17.052   -17.051     0.000     30.03
S(-2)         0.000e+00
   HS-             0.000e+00   0.000e+00  -114.826  -114.852    -0.026     20.74
   H2S             0.000e+00   0.000e+00  -114.927  -114.927     0.000     33.46
   S-2             0.000e+00   0.000e+00  -120.615  -120.717    -0.102     (0)  
   (H2S)2          0.000e+00   0.000e+00  -231.011  -231.011     0.000     41.37
S(6)          8.116e-04
   SO4-2           7.575e-04   5.992e-04    -3.121    -3.222    -0.102     16.87
   SrSO4           5.408e-05   5.411e-05    -4.267    -4.267     0.000     24.97
   HSO4-           5.336e-09   5.028e-09    -8.273    -8.299    -0.026     39.76
Sr            8.116e-04
   Sr+2            7.575e-04   6.005e-04    -3.121    -3.222    -0.101    -15.76
   SrSO4           5.408e-05   5.411e-05    -4.267    -4.267     0.000     24.97
   SrOH+           3.017e-10   2.846e-10    -9.520    -9.546    -0.025     (0)  

------------------------------Saturation indices-------------------------------

  Phase               SI** log IAP   log K(298 K, 267 atm)

  Celestite         0.00     -6.44   -6.44  SrSO4
  H2(g)           -34.54    -37.71   -3.17  H2
  H2O(g)           -1.42     -0.00    1.42  H2O
  H2S(g)         -113.77   -121.81   -8.03  H2S
  O2(g)           -14.02    -17.05   -3.03  O2
  Sulfur          -85.16    -80.43    4.72  S

**For a gas, SI = log10(fugacity). Fugacity = pressure * phi / 1 atm.
  For ideal gases, phi = 1.

Reaction step 6.

Using solution 1.	
Using pure phase assemblage 1.	
Using pressure 1.	

-------------------------------Phase assemblage--------------------------------

                                                      Moles in assemblage
Phase               SI  log IAP  log K(T, P)   Initial       Final       Delta

Celestite        -0.00    -6.40     -6.40    1.000e+01   9.999e+00  -8.620e-04

-----------------------------Solution composition------------------------------

	Elements           Molality       Moles

	S                 8.620e-04   8.620e-04
	Sr                8.620e-04   8.620e-04

----------------------------Description of solution----------------------------

                                       pH  =   6.944      Charge balance
                                       pe  =  10.303      Adjusted to redox equilibrium
      Specific Conductance (µS/cm,  25°C)  = 217
                          Density (g/cm³)  =   1.01187
                               Volume (L)  =   0.98842
                        Viscosity (mPa s)  =   0.88838
                        Activity of water  =   1.000
                 Ionic strength (mol/kgw)  =   3.219e-03
                       Mass of water (kg)  =   1.000e+00
                 Total alkalinity (eq/kg)  =   3.260e-17
                         Temperature (°C)  =  25.00
                           Pressure (atm)  = 333.78
                  Electrical balance (eq)  =  -3.037e-16
 Percent error, 100*(Cat-|An|)/(Cat+|An|)  =  -0.00
                               Iterations  =  14
                                  Total H  = 1.110124e+02
                                  Total O  = 5.550966e+01

----------------------------Distribution of species----------------------------

                                               Log       Log       Log    mole V
   Species          Molality    Activity  Molality  Activity     Gamma   cm³/mol

   OH-             1.255e-07   1.180e-07    -6.901    -6.928    -0.027     -2.96
   H+              1.203e-07   1.138e-07    -6.920    -6.944    -0.024      0.00
   H2O             5.551e+01   1.000e+00     1.744    -0.000     0.000     17.81
H(0)          3.693e-38
   H2              1.846e-38   1.848e-38   -37.734   -37.733     0.000     15.20
O(0)          1.814e-17
   O2              9.072e-18   9.078e-18   -17.042   -17.042     0.000     29.95
S(-2)         0.000e+00
   HS-             0.000e+00   0.000e+00  -114.881  -114.908    -0.027     20.77
   H2S             0.000e+00   0.000e+00  -114.982  -114.981     0.000     32.83
   S-2             0.000e+00   0.000e+00  -120.655  -120.759    -0.104     (0)  
   (H2S)2          0.000e+00   0.000e+00  -231.112  -231.112     0.000     43.87
S(6)          8.620e-04
   SO4-2           8.048e-04   6.329e-04    -3.094    -3.199    -0.104     17.39
   SrSO4           5.719e-05   5.724e-05    -4.243    -4.242     0.000     25.14
   HSO4-           5.496e-09   5.171e-09    -8.260    -8.286    -0.026     39.65
Sr            8.620e-04
   Sr+2            8.048e-04   6.343e-04    -3.094    -3.198    -0.103    -15.27
   SrSO4           5.719e-05   5.724e-05    -4.243    -4.242     0.000     25.14
   SrOH+           3.143e-10   2.960e-10    -9.503    -9.529    -0.026     (0)  

------------------------------Saturation indices-------------------------------

  Phase               SI** log IAP   log K(298 K, 334 atm)

  Celestite        -0.00     -6.40   -6.40  SrSO4
  H2(g)           -34.54    -37.73   -3.19  H2
  H2O(g)           -1.40     -0.00    1.40  H2O
  H2S(g)         -113.79   -121.85   -8.06  H2S
  O2(g)           -13.97    -17.04   -3.07  O2
  Sulfur          -85.18    -80.49    4.69  S

**For a gas, SI = log10(fugacity). Fugacity = pressure * phi / 1 atm.
  For ideal gases, phi = 1.

Reaction step 7.

Using solution 1.	
Using pure phase assemblage 1.	
Using pressure 1.	

-------------------------------Phase assemblage--------------------------------

                                                      Moles in assemblage
Phase               SI  log IAP  log K(T, P)   Initial       Final       Delta

Celestite        -0.00    -6.35     -6.35    1.000e+01   9.999e+00  -9.133e-04

-----------------------------Solution composition------------------------------

	Elements           Molality       Moles

	S                 9.133e-04   9.133e-04
	Sr                9.133e-04   9.133e-04

----------------------------Description of solution----------------------------

                                       pH  =   6.933      Charge balance
                                       pe  =  10.312      Adjusted to redox equilibrium
      Specific Conductance (µS/cm,  25°C)  = 231
                          Density (g/cm³)  =   1.01472
                               Volume (L)  =   0.98566
                        Viscosity (mPa s)  =   0.88831
                        Activity of water  =   1.000
                 Ionic strength (mol/kgw)  =   3.412e-03
                       Mass of water (kg)  =   1.000e+00
                 Total alkalinity (eq/kg)  =   4.141e-17
                         Temperature (°C)  =  25.00
                           Pressure (atm)  = 400.33
                  Electrical balance (eq)  =  -1.448e-15
 Percent error, 100*(Cat-|An|)/(Cat+|An|)  =  -0.00
                               Iterations  =  14
                                  Total H  = 1.110124e+02
                                  Total O  = 5.550987e+01

----------------------------Distribution of species----------------------------

                                               Log       Log       Log    mole V
   Species          Molality    Activity  Molality  Activity     Gamma   cm³/mol

   OH-             1.290e-07   1.211e-07    -6.889    -6.917    -0.027     -2.75
   H+              1.237e-07   1.168e-07    -6.908    -6.933    -0.025      0.00
   H2O             5.551e+01   1.000e+00     1.744    -0.000     0.000     17.76
H(0)          3.578e-38
   H2              1.789e-38   1.790e-38   -37.747   -37.747     0.000     15.23
O(0)          1.804e-17
   O2              9.021e-18   9.028e-18   -17.045   -17.044     0.000     29.87
S(-2)         0.000e+00
   HS-             0.000e+00   0.000e+00  -114.912  -114.939    -0.027     20.80
   H2S             0.000e+00   0.000e+00  -115.011  -115.011     0.000     32.24
   S-2             0.000e+00   0.000e+00  -120.670  -120.777    -0.107     (0)  
   (H2S)2          0.000e+00   0.000e+00  -231.172  -231.171     0.000     46.26
S(6)          9.133e-04
   SO4-2           8.529e-04   6.669e-04    -3.069    -3.176    -0.107     17.88
   SrSO4           6.044e-05   6.049e-05    -4.219    -4.218     0.000     25.29
   HSO4-           5.660e-09   5.318e-09    -8.247    -8.274    -0.027     39.54
Sr            9.133e-04
   Sr+2            8.529e-04   6.685e-04    -3.069    -3.175    -0.106    -14.81
   SrSO4           6.044e-05   6.049e-05    -4.219    -4.218     0.000     25.29
   SrOH+           3.276e-10   3.080e-10    -9.485    -9.511    -0.027     (0)  

------------------------------Saturation indices-------------------------------

  Phase               SI** log IAP   log K(298 K, 400 atm)

  Celestite        -0.00     -6.35   -6.35  SrSO4
  H2(g)           -34.54    -37.75   -3.21  H2
  H2O(g)           -1.38     -0.00    1.38  H2O
  H2S(g)         -113.79   -121.87   -8.08  H2S
  O2(g)           -13.94    -17.04   -3.10  O2
  Sulfur          -85.18    -80.52    4.65  S

**For a gas, SI = log10(fugacity). Fugacity = pressure * phi / 1 atm.
  For ideal gases, phi = 1.

Reaction step 8.

Using solution 1.	
Using pure phase assemblage 1.	
Using pressure 1.	

-------------------------------Phase assemblage--------------------------------

                                                      Moles in assemblage
Phase               SI  log IAP  log K(T, P)   Initial       Final       Delta

Celestite        -0.00    -6.31     -6.31    1.000e+01   9.999e+00  -9.656e-04

-----------------------------Solution composition------------------------------

	Elements           Molality       Moles

	S                 9.656e-04   9.656e-04
	Sr                9.656e-04   9.656e-04

----------------------------Description of solution----------------------------

                                       pH  =   6.921      Charge balance
                                       pe  =  10.320      Adjusted to redox equilibrium
      Specific Conductance (µS/cm,  25°C)  = 245
                          Density (g/cm³)  =   1.01753
                               Volume (L)  =   0.98295
                        Viscosity (mPa s)  =   0.88839
                        Activity of water  =   1.000
                 Ionic strength (mol/kgw)  =   3.607e-03
                       Mass of water (kg)  =   1.000e+00
                 Total alkalinity (eq/kg)  =   5.463e-17
                         Temperature (°C)  =  25.00
                           Pressure (atm)  = 466.89
                  Electrical balance (eq)  =  -2.976e-15
 Percent error, 100*(Cat-|An|)/(Cat+|An|)  =  -0.00
                               Iterations  =  14
                                  Total H  = 1.110124e+02
                                  Total O  = 5.551008e+01

----------------------------Distribution of species----------------------------

                                               Log       Log       Log    mole V
   Species          Molality    Activity  Molality  Activity     Gamma   cm³/mol

   OH-             1.325e-07   1.243e-07    -6.878    -6.906    -0.028     -2.56
   H+              1.271e-07   1.198e-07    -6.896    -6.921    -0.025      0.00
   H2O             5.551e+01   1.000e+00     1.744    -0.000     0.000     17.71
H(0)          3.478e-38
   H2              1.739e-38   1.740e-38   -37.760   -37.759     0.000     15.26
O(0)          1.781e-17
   O2              8.907e-18   8.914e-18   -17.050   -17.050     0.000     29.80
S(-2)         0.000e+00
   HS-             0.000e+00   0.000e+00  -114.936  -114.964    -0.028     20.82
   H2S             0.000e+00   0.000e+00  -115.034  -115.034     0.000     31.67
   S-2             0.000e+00   0.000e+00  -120.679  -120.788    -0.109     (0)  
   (H2S)2          0.000e+00   0.000e+00  -231.224  -231.223     0.000     48.55
S(6)          9.656e-04
   SO4-2           9.017e-04   7.012e-04    -3.045    -3.154    -0.109     18.36
   SrSO4           6.383e-05   6.388e-05    -4.195    -4.195     0.000     25.44
   HSO4-           5.829e-09   5.469e-09    -8.234    -8.262    -0.028     39.43
Sr            9.656e-04
   Sr+2            9.017e-04   7.029e-04    -3.045    -3.153    -0.108    -14.37
   SrSO4           6.383e-05   6.388e-05    -4.195    -4.195     0.000     25.44
   SrOH+           3.414e-10   3.206e-10    -9.467    -9.494    -0.027     (0)  

------------------------------Saturation indices-------------------------------

  Phase               SI** log IAP   log K(298 K, 467 atm)

  Celestite        -0.00     -6.31   -6.31  SrSO4
  H2(g)           -34.53    -37.76   -3.23  H2
  H2O(g)           -1.36     -0.00    1.36  H2O
  H2S(g)         -113.78   -121.89   -8.11  H2S
  O2(g)           -13.91    -17.05   -3.14  O2
  Sulfur          -85.17    -80.55    4.62  S

**For a gas, SI = log10(fugacity). Fugacity = pressure * phi / 1 atm.
  For ideal gases, phi = 1.

Reaction step 9.

Using solution 1.	
Using pure phase assemblage 1.	
Using pressure 1.	

-------------------------------Phase assemblage--------------------------------

                                                      Moles in assemblage
Phase               SI  log IAP  log K(T, P)   Initial       Final       Delta

Celestite        -0.00    -6.27     -6.27    1.000e+01   9.999e+00  -1.019e-03

-----------------------------Solution composition------------------------------

	Elements           Molality       Moles

	S                 1.019e-03   1.019e-03
	Sr                1.019e-03   1.019e-03

----------------------------Description of solution----------------------------

                                       pH  =   6.911      Charge balance
                                       pe  =  10.328      Adjusted to redox equilibrium
      Specific Conductance (µS/cm,  25°C)  = 259
                          Density (g/cm³)  =   1.02029
                               Volume (L)  =   0.98029
                        Viscosity (mPa s)  =   0.88862
                        Activity of water  =   1.000
                 Ionic strength (mol/kgw)  =   3.805e-03
                       Mass of water (kg)  =   1.000e+00
                 Total alkalinity (eq/kg)  =   7.351e-17
                         Temperature (°C)  =  25.00
                           Pressure (atm)  = 533.44
                  Electrical balance (eq)  =  -4.979e-15
 Percent error, 100*(Cat-|An|)/(Cat+|An|)  =  -0.00
                               Iterations  =  14
                                  Total H  = 1.110124e+02
                                  Total O  = 5.551029e+01

----------------------------Distribution of species----------------------------

                                               Log       Log       Log    mole V
   Species          Molality    Activity  Molality  Activity     Gamma   cm³/mol

   OH-             1.361e-07   1.274e-07    -6.866    -6.895    -0.029     -2.38
   H+              1.304e-07   1.229e-07    -6.885    -6.911    -0.026      0.00
   H2O             5.551e+01   1.000e+00     1.744    -0.000     0.000     17.66
H(0)          3.380e-38
   H2              1.690e-38   1.692e-38   -37.772   -37.772     0.000     15.29
O(0)          1.759e-17
   O2              8.795e-18   8.803e-18   -17.056   -17.055     0.000     29.73
S(-2)         0.000e+00
   HS-             0.000e+00   0.000e+00  -114.961  -114.989    -0.029     20.85
   H2S             0.000e+00   0.000e+00  -115.056  -115.055     0.000     31.12
   S-2             0.000e+00   0.000e+00  -120.688  -120.800    -0.111     (0)  
   (H2S)2          0.000e+00   0.000e+00  -231.281  -231.280     0.000     50.74
S(6)          1.019e-03
   SO4-2           9.512e-04   7.356e-04    -3.022    -3.133    -0.112     18.82
   SrSO4           6.736e-05   6.742e-05    -4.172    -4.171     0.000     25.58
   HSO4-           6.003e-09   5.624e-09    -8.222    -8.250    -0.028     39.33
Sr            1.019e-03
   Sr+2            9.512e-04   7.376e-04    -3.022    -3.132    -0.110    -13.94
   SrSO4           6.736e-05   6.742e-05    -4.172    -4.171     0.000     25.58
   SrOH+           3.559e-10   3.338e-10    -9.449    -9.476    -0.028     (0)  

------------------------------Saturation indices-------------------------------

  Phase               SI** log IAP   log K(298 K, 533 atm)

  Celestite        -0.00     -6.27   -6.27  SrSO4
  H2(g)           -34.53    -37.77   -3.24  H2
  H2O(g)           -1.34     -0.00    1.34  H2O
  H2S(g)         -113.77   -121.90   -8.13  H2S
  O2(g)           -13.88    -17.06   -3.17  O2
  Sulfur          -85.17    -80.58    4.59  S

**For a gas, SI = log10(fugacity). Fugacity = pressure * phi / 1 atm.
  For ideal gases, phi = 1.

Reaction step 10.

Using solution 1.	
Using pure phase assemblage 1.	
Using pressure 1.	

-------------------------------Phase assemblage--------------------------------

                                                      Moles in assemblage
Phase               SI  log IAP  log K(T, P)   Initial       Final       Delta

Celestite        -0.00    -6.23     -6.23    1.000e+01   9.999e+00  -1.072e-03

-----------------------------Solution composition------------------------------

	Elements           Molality       Moles

	S                 1.072e-03   1.072e-03
	Sr                1.072e-03   1.072e-03

----------------------------Description of solution----------------------------

                                       pH  =   6.900      Charge balance
                                       pe  =  10.338      Adjusted to redox equilibrium
      Specific Conductance (µS/cm,  25°C)  = 273
                          Density (g/cm³)  =   1.02303
                               Volume (L)  =   0.97768
                        Viscosity (mPa s)  =   0.88900
                        Activity of water  =   1.000
                 Ionic strength (mol/kgw)  =   4.005e-03
                       Mass of water (kg)  =   1.000e+00
                 Total alkalinity (eq/kg)  =   9.905e-17
                         Temperature (°C)  =  25.00
                           Pressure (atm)  = 600.00
                  Electrical balance (eq)  =  -7.570e-15
 Percent error, 100*(Cat-|An|)/(Cat+|An|)  =  -0.00
                               Iterations  =  14
                                  Total H  = 1.110124e+02
                                  Total O  = 5.551051e+01

----------------------------Distribution of species----------------------------

                                               Log       Log       Log    mole V
   Species          Molality    Activity  Molality  Activity     Gamma   cm³/mol

   OH-             1.396e-07   1.305e-07    -6.855    -6.884    -0.029     -2.20
   H+              1.338e-07   1.259e-07    -6.873    -6.900    -0.026      0.00
   H2O             5.551e+01   1.000e+00     1.744    -0.000     0.000     17.61
H(0)          3.248e-38
   H2              1.624e-38   1.626e-38   -37.789   -37.789     0.000     15.32
O(0)          1.776e-17
   O2              8.878e-18   8.886e-18   -17.052   -17.051     0.000     29.66
S(-2)         0.000e+00
   HS-             0.000e+00   0.000e+00  -115.004  -115.034    -0.029     20.88
   H2S             0.000e+00   0.000e+00  -115.096  -115.095     0.000     30.60
   S-2             0.000e+00   0.000e+00  -120.716  -120.830    -0.114     (0)  
   (H2S)2          0.000e+00   0.000e+00  -231.380  -231.380     0.000     52.84
S(6)          1.072e-03
   SO4-2           1.001e-03   7.703e-04    -2.999    -3.113    -0.114     19.26
   SrSO4           7.105e-05   7.111e-05    -4.148    -4.148     0.000     25.72
   HSO4-           6.181e-09   5.783e-09    -8.209    -8.238    -0.029     39.24
Sr            1.072e-03
   Sr+2            1.001e-03   7.724e-04    -2.999    -3.112    -0.113    -13.53
   SrSO4           7.105e-05   7.111e-05    -4.148    -4.148     0.000     25.72
   SrOH+           3.711e-10   3.476e-10    -9.430    -9.459    -0.028     (0)  

------------------------------Saturation indices-------------------------------

  Phase               SI** log IAP   log K(298 K, 600 atm)

  Celestite        -0.00     -6.23   -6.23  SrSO4
  H2(g)           -34.53    -37.79   -3.26  H2
  H2O(g)           -1.32     -0.00    1.32  H2O
  H2S(g)         -113.78   -121.93   -8.16  H2S
  O2(g)           -13.84    -17.05   -3.21  O2
  Sulfur          -85.18    -80.62    4.56  S

**For a gas, SI = log10(fugacity). Fugacity = pressure * phi / 1 atm.
  For ideal gases, phi = 1.

------------------
End of simulation.
------------------

------------------------------------
Reading input data for simulation 2.
------------------------------------

	SOLUTION 1
	 pH 7 charge
	  temp 100
	USE reaction_pressure 1
	 USE equilibrium_phases 1
	END
-------------------------------------------
Beginning of initial solution calculations.
-------------------------------------------

Initial solution 1.	

-----------------------------Solution composition------------------------------

	Elements           Molality       Moles

	Pure water     

----------------------------Description of solution----------------------------

                                       pH  =   6.119      Charge balance
                                       pe  =   4.000    
      Specific Conductance (µS/cm, 100°C)  = 0
                          Density (g/cm³)  =   0.95835
                               Volume (L)  =   1.04346
                        Viscosity (mPa s)  =   0.28158
                        Activity of water  =   1.000
                 Ionic strength (mol/kgw)  =   7.610e-07
                       Mass of water (kg)  =   1.000e+00
                 Total alkalinity (eq/kg)  =  -1.160e-16
                         Temperature (°C)  = 100.00
                  Electrical balance (eq)  =   1.160e-16
 Percent error, 100*(Cat-|An|)/(Cat+|An|)  =   0.00
                               Iterations  =   5
                                  Total H  = 1.110124e+02
                                  Total O  = 5.550622e+01

----------------------------Distribution of species----------------------------

                                               Log       Log       Log    mole V
   Species          Molality    Activity  Molality  Activity     Gamma   cm³/mol

   H+              7.610e-07   7.601e-07    -6.119    -6.119    -0.001      0.00
   OH-             7.610e-07   7.601e-07    -6.119    -6.119    -0.001     -5.96
   H2O             5.551e+01   1.000e+00     1.744    -0.000     0.000     18.80
H(0)          4.504e-24
   H2              2.252e-24   2.252e-24   -23.647   -23.647     0.000     18.32
O(0)          1.633e-26
   O2              8.164e-27   8.164e-27   -26.088   -26.088     0.000     33.90

------------------------------Saturation indices-------------------------------

  Phase               SI** log IAP   log K(373 K,   1 atm)

  H2(g)           -20.56    -23.65   -3.09  H2
  H2O(g)           -0.00     -0.00    0.00  H2O
  O2(g)           -22.97    -26.09   -3.11  O2

**For a gas, SI = log10(fugacity). Fugacity = pressure * phi / 1 atm.
  For ideal gases, phi = 1.

-----------------------------------------
Beginning of batch-reaction calculations.
-----------------------------------------

Reaction step 1.

Using solution 1.	
Using pure phase assemblage 1.	
Using pressure 1.	

-------------------------------Phase assemblage--------------------------------

                                                      Moles in assemblage
Phase               SI  log IAP  log K(T, P)   Initial       Final       Delta

Celestite         0.00    -7.15     -7.15    1.000e+01   1.000e+01  -3.478e-04

-----------------------------Solution composition------------------------------

	Elements           Molality       Moles

	S                 3.478e-04   3.478e-04
	Sr                3.478e-04   3.478e-04

----------------------------Description of solution----------------------------

                                       pH  =   6.156      Charge balance
                                       pe  =   6.874      Adjusted to redox equilibrium
      Specific Conductance (µS/cm, 100°C)  = 264
                          Density (g/cm³)  =   0.95841
                               Volume (L)  =   1.04346
                        Viscosity (mPa s)  =   0.28188
                        Activity of water  =   1.000
                 Ionic strength (mol/kgw)  =   1.281e-03
                       Mass of water (kg)  =   1.000e+00
                 Total alkalinity (eq/kg)  =  -1.198e-16
                         Temperature (°C)  = 100.00
                  Electrical balance (eq)  =   1.621e-13
 Percent error, 100*(Cat-|An|)/(Cat+|An|)  =   0.00
                               Iterations  =  11
                                  Total H  = 1.110124e+02
                                  Total O  = 5.550761e+01

----------------------------Distribution of species----------------------------

                                               Log       Log       Log    mole V
   Species          Molality    Activity  Molality  Activity     Gamma   cm³/mol

   OH-             8.684e-07   8.282e-07    -6.061    -6.082    -0.021     -5.89
   H+              7.293e-07   6.975e-07    -6.137    -6.156    -0.019      0.00
   H2O             5.551e+01   1.000e+00     1.744    -0.000     0.000     18.80
H(0)          6.781e-30
   H2              3.390e-30   3.391e-30   -29.470   -29.470     0.000     18.32
O(0)          7.197e-15
   O2              3.598e-15   3.599e-15   -14.444   -14.444     0.000     33.90
S(-2)         0.000e+00
   H2S             0.000e+00   0.000e+00   -88.820   -88.820     0.000     46.17
   HS-             0.000e+00   0.000e+00   -89.164   -89.184    -0.021     19.83
   S-2             0.000e+00   0.000e+00   -94.082   -94.163    -0.081     (0)  
   (H2S)2          0.000e+00   0.000e+00  -178.474  -178.474     0.000     24.22
S(6)          3.478e-04
   SO4-2           3.198e-04   2.654e-04    -3.495    -3.576    -0.081     12.44
   SrSO4           2.785e-05   2.786e-05    -4.555    -4.555     0.000     25.60
   HSO4-           1.391e-07   1.327e-07    -6.857    -6.877    -0.021     40.74
Sr            3.478e-04
   Sr+2            3.200e-04   2.658e-04    -3.495    -3.575    -0.081    -19.92
   SrSO4           2.785e-05   2.786e-05    -4.555    -4.555     0.000     25.60
   SrOH+           2.048e-11   1.954e-11   -10.689   -10.709    -0.020     (0)  

------------------------------Saturation indices-------------------------------

  Phase               SI** log IAP   log K(373 K,   1 atm)

  Celestite         0.00     -7.15   -7.15  SrSO4
  H2(g)           -26.38    -29.47   -3.09  H2
  H2O(g)           -0.01     -0.00    0.00  H2O
  H2S(g)          -87.34    -95.34   -8.00  H2S
  O2(g)           -11.33    -14.44   -3.11  O2
  Sulfur          -66.24    -62.76    3.48  S

**For a gas, SI = log10(fugacity). Fugacity = pressure * phi / 1 atm.
  For ideal gases, phi = 1.

Reaction step 2.

Using solution 1.	
Using pure phase assemblage 1.	
Using pressure 1.	

-------------------------------Phase assemblage--------------------------------

                                                      Moles in assemblage
Phase               SI  log IAP  log K(T, P)   Initial       Final       Delta

Celestite         0.00    -7.10     -7.10    1.000e+01   1.000e+01  -3.696e-04

-----------------------------Solution composition------------------------------

	Elements           Molality       Moles

	S                 3.696e-04   3.696e-04
	Sr                3.696e-04   3.696e-04

----------------------------Description of solution----------------------------

                                       pH  =   6.145      Charge balance
                                       pe  =   6.885      Adjusted to redox equilibrium
      Specific Conductance (µS/cm, 100°C)  = 280
                          Density (g/cm³)  =   0.96160
                               Volume (L)  =   1.04001
                        Viscosity (mPa s)  =   0.28374
                        Activity of water  =   1.000
                 Ionic strength (mol/kgw)  =   1.362e-03
                       Mass of water (kg)  =   1.000e+00
                 Total alkalinity (eq/kg)  =  -2.079e-16
                         Temperature (°C)  = 100.00
                           Pressure (atm)  = 67.56
                  Electrical balance (eq)  =   1.418e-13
 Percent error, 100*(Cat-|An|)/(Cat+|An|)  =   0.00
                               Iterations  =  11
                                  Total H  = 1.110124e+02
                                  Total O  = 5.550770e+01

----------------------------Distribution of species----------------------------

                                               Log       Log       Log    mole V
   Species          Molality    Activity  Molality  Activity     Gamma   cm³/mol

   OH-             8.930e-07   8.506e-07    -6.049    -6.070    -0.021     -6.18
   H+              7.503e-07   7.169e-07    -6.125    -6.145    -0.020      0.00
   H2O             5.551e+01   1.000e+00     1.744    -0.000     0.000     18.74
H(0)          6.544e-30
   H2              3.272e-30   3.273e-30   -29.485   -29.485     0.000     18.22
O(0)          7.197e-15
   O2              3.598e-15   3.599e-15   -14.444   -14.444     0.000     33.68
S(-2)         0.000e+00
   H2S             0.000e+00   0.000e+00   -88.866   -88.866     0.000     45.15
   HS-             0.000e+00   0.000e+00   -89.197   -89.218    -0.021     19.88
   S-2             0.000e+00   0.000e+00   -94.107   -94.190    -0.083     (0)  
   (H2S)2          0.000e+00   0.000e+00  -178.505  -178.505     0.000     27.45
S(6)          3.696e-04
   SO4-2           3.403e-04   2.811e-04    -3.468    -3.551    -0.083     12.93
   SrSO4           2.913e-05   2.914e-05    -4.536    -4.536     0.000     25.71
   HSO4-           1.427e-07   1.360e-07    -6.846    -6.867    -0.021     40.59
Sr            3.696e-04
   Sr+2            3.404e-04   2.815e-04    -3.468    -3.550    -0.083    -19.35
   SrSO4           2.913e-05   2.914e-05    -4.536    -4.536     0.000     25.71
   SrOH+           2.110e-11   2.011e-11   -10.676   -10.697    -0.021     (0)  

------------------------------Saturation indices-------------------------------

  Phase               SI** log IAP   log K(373 K,  68 atm)

  Celestite         0.00     -7.10   -7.10  SrSO4
  H2(g)           -26.38    -29.49   -3.10  H2
  H2O(g)            0.01     -0.00   -0.01  H2O
  H2S(g)          -87.34    -95.36   -8.02  H2S
  O2(g)           -11.30    -14.44   -3.15  O2
  Sulfur          -66.25    -62.81    3.44  S

**For a gas, SI = log10(fugacity). Fugacity = pressure * phi / 1 atm.
  For ideal gases, phi = 1.

Reaction step 3.

Using solution 1.	
Using pure phase assemblage 1.	
Using pressure 1.	

-------------------------------Phase assemblage--------------------------------

                                                      Moles in assemblage
Phase               SI  log IAP  log K(T, P)   Initial       Final       Delta

Celestite         0.00    -7.05     -7.05    1.000e+01   1.000e+01  -3.918e-04

-----------------------------Solution composition------------------------------

	Elements           Molality       Moles

	S                 3.918e-04   3.918e-04
	Sr                3.918e-04   3.918e-04

----------------------------Description of solution----------------------------

                                       pH  =   6.132      Charge balance
                                       pe  =   6.896      Adjusted to redox equilibrium
      Specific Conductance (µS/cm, 100°C)  = 296
                          Density (g/cm³)  =   0.96470
                               Volume (L)  =   1.03666
                        Viscosity (mPa s)  =   0.28557
                        Activity of water  =   1.000
                 Ionic strength (mol/kgw)  =   1.446e-03
                       Mass of water (kg)  =   1.000e+00
                 Total alkalinity (eq/kg)  =  -2.706e-16
                         Temperature (°C)  = 100.00
                           Pressure (atm)  = 134.11
                  Electrical balance (eq)  =   1.219e-13
 Percent error, 100*(Cat-|An|)/(Cat+|An|)  =   0.00
                               Iterations  =  11
                                  Total H  = 1.110124e+02
                                  Total O  = 5.550778e+01

----------------------------Distribution of species----------------------------

                                               Log       Log       Log    mole V
   Species          Molality    Activity  Molality  Activity     Gamma   cm³/mol

   OH-             9.188e-07   8.742e-07    -6.037    -6.058    -0.022     -6.46
   H+              7.723e-07   7.371e-07    -6.112    -6.132    -0.020      0.00
   H2O             5.551e+01   1.000e+00     1.744    -0.000     0.000     18.68
H(0)          6.320e-30
   H2              3.160e-30   3.161e-30   -29.500   -29.500     0.000     18.13
O(0)          7.196e-15
   O2              3.598e-15   3.599e-15   -14.444   -14.444     0.000     33.47
S(-2)         0.000e+00
   H2S             0.000e+00   0.000e+00   -88.908   -88.908     0.000     44.18
   HS-             0.000e+00   0.000e+00   -89.229   -89.250    -0.022     19.94
   S-2             0.000e+00   0.000e+00   -94.131   -94.216    -0.085     (0)  
   (H2S)2          0.000e+00   0.000e+00  -178.540  -178.540     0.000     30.52
S(6)          3.918e-04
   SO4-2           3.612e-04   2.970e-04    -3.442    -3.527    -0.085     13.40
   SrSO4           3.046e-05   3.047e-05    -4.516    -4.516     0.000     25.82
   HSO4-           1.466e-07   1.395e-07    -6.834    -6.855    -0.022     40.45
Sr            3.918e-04
   Sr+2            3.614e-04   2.975e-04    -3.442    -3.526    -0.084    -18.80
   SrSO4           3.046e-05   3.047e-05    -4.516    -4.516     0.000     25.82
   SrOH+           2.173e-11   2.069e-11   -10.663   -10.684    -0.021     (0)  

------------------------------Saturation indices-------------------------------

  Phase               SI** log IAP   log K(373 K, 134 atm)

  Celestite         0.00     -7.05   -7.05  SrSO4
  H2(g)           -26.38    -29.50   -3.12  H2
  H2O(g)            0.03     -0.00   -0.03  H2O
  H2S(g)          -87.34    -95.38   -8.04  H2S
  O2(g)           -11.27    -14.44   -3.18  O2
  Sulfur          -66.25    -62.85    3.40  S

**For a gas, SI = log10(fugacity). Fugacity = pressure * phi / 1 atm.
  For ideal gases, phi = 1.

Reaction step 4.

Using solution 1.	
Using pure phase assemblage 1.	
Using pressure 1.	

-------------------------------Phase assemblage--------------------------------

                                                      Moles in assemblage
Phase               SI  log IAP  log K(T, P)   Initial       Final       Delta

Celestite         0.00    -7.01     -7.01    1.000e+01   1.000e+01  -4.146e-04

-----------------------------Solution composition------------------------------

	Elements           Molality       Moles

	S                 4.146e-04   4.146e-04
	Sr                4.146e-04   4.146e-04

----------------------------Description of solution----------------------------

                                       pH  =   6.120      Charge balance
                                       pe  =   6.907      Adjusted to redox equilibrium
      Specific Conductance (µS/cm, 100°C)  = 312
                          Density (g/cm³)  =   0.96774
                               Volume (L)  =   1.03342
                        Viscosity (mPa s)  =   0.28739
                        Activity of water  =   1.000
                 Ionic strength (mol/kgw)  =   1.532e-03
                       Mass of water (kg)  =   1.000e+00
                 Total alkalinity (eq/kg)  =  -3.079e-16
                         Temperature (°C)  = 100.00
                           Pressure (atm)  = 200.67
                  Electrical balance (eq)  =   1.019e-13
 Percent error, 100*(Cat-|An|)/(Cat+|An|)  =   0.00
                               Iterations  =  11
                                  Total H  = 1.110124e+02
                                  Total O  = 5.550788e+01

----------------------------Distribution of species----------------------------

                                               Log       Log       Log    mole V
   Species          Molality    Activity  Molality  Activity     Gamma   cm³/mol

   OH-             9.458e-07   8.988e-07    -6.024    -6.046    -0.022     -6.72
   H+              7.951e-07   7.582e-07    -6.100    -6.120    -0.021      0.00
   H2O             5.551e+01   1.000e+00     1.744    -0.000     0.000     18.62
H(0)          6.106e-30
   H2              3.053e-30   3.054e-30   -29.515   -29.515     0.000     18.04
O(0)          7.197e-15
   O2              3.598e-15   3.600e-15   -14.444   -14.444     0.000     33.27
S(-2)         0.000e+00
   H2S             0.000e+00   0.000e+00   -88.948   -88.948     0.000     43.26
   HS-             0.000e+00   0.000e+00   -89.260   -89.282    -0.022     19.99
   S-2             0.000e+00   0.000e+00   -94.154   -94.241    -0.087     (0)  
   (H2S)2          0.000e+00   0.000e+00  -178.578  -178.578     0.000     33.45
S(6)          4.146e-04
   SO4-2           3.826e-04   3.132e-04    -3.417    -3.504    -0.087     13.85
   SrSO4           3.183e-05   3.184e-05    -4.497    -4.497     0.000     25.93
   HSO4-           1.507e-07   1.432e-07    -6.822    -6.844    -0.022     40.32
Sr            4.146e-04
   Sr+2            3.828e-04   3.138e-04    -3.417    -3.503    -0.086    -18.28
   SrSO4           3.183e-05   3.184e-05    -4.497    -4.497     0.000     25.93
   SrOH+           2.236e-11   2.127e-11   -10.651   -10.672    -0.022     (0)  

------------------------------Saturation indices-------------------------------

  Phase               SI** log IAP   log K(373 K, 201 atm)

  Celestite         0.00     -7.01   -7.01  SrSO4
  H2(g)           -26.38    -29.52   -3.14  H2
  H2O(g)            0.05     -0.00   -0.05  H2O
  H2S(g)          -87.34    -95.40   -8.06  H2S
  O2(g)           -11.23    -14.44   -3.21  O2
  Sulfur          -66.25    -62.89    3.36  S

**For a gas, SI = log10(fugacity). Fugacity = pressure * phi / 1 atm.
  For ideal gases, phi = 1.

Reaction step 5.

Using solution 1.	
Using pure phase assemblage 1.	
Using pressure 1.	

-------------------------------Phase assemblage--------------------------------

                                                      Moles in assemblage
Phase               SI  log IAP  log K(T, P)   Initial       Final       Delta

Celestite         0.00    -6.96     -6.96    1.000e+01   1.000e+01  -4.379e-04

-----------------------------Solution composition------------------------------

	Elements           Molality       Moles

	S                 4.379e-04   4.379e-04
	Sr                4.379e-04   4.379e-04

----------------------------Description of solution----------------------------

                                       pH  =   6.108      Charge balance
                                       pe  =   6.919      Adjusted to redox equilibrium
      Specific Conductance (µS/cm, 100°C)  = 329
                          Density (g/cm³)  =   0.97071
                               Volume (L)  =   1.03026
                        Viscosity (mPa s)  =   0.28919
                        Activity of water  =   1.000
                 Ionic strength (mol/kgw)  =   1.619e-03
                       Mass of water (kg)  =   1.000e+00
                 Total alkalinity (eq/kg)  =  -3.186e-16
                         Temperature (°C)  = 100.00
                           Pressure (atm)  = 267.22
                  Electrical balance (eq)  =   8.140e-14
 Percent error, 100*(Cat-|An|)/(Cat+|An|)  =   0.00
                               Iterations  =  11
                                  Total H  = 1.110124e+02
                                  Total O  = 5.550797e+01

----------------------------Distribution of species----------------------------

                                               Log       Log       Log    mole V
   Species          Molality    Activity  Molality  Activity     Gamma   cm³/mol

   OH-             9.739e-07   9.245e-07    -6.011    -6.034    -0.023     -6.97
   H+              8.190e-07   7.801e-07    -6.087    -6.108    -0.021      0.00
   H2O             5.551e+01   1.000e+00     1.744    -0.000     0.000     18.56
H(0)          5.903e-30
   H2              2.951e-30   2.952e-30   -29.530   -29.530     0.000     17.96
O(0)          7.196e-15
   O2              3.598e-15   3.600e-15   -14.444   -14.444     0.000     33.08
S(-2)         0.000e+00
   H2S             0.000e+00   0.000e+00   -88.985   -88.985     0.000     42.38
   HS-             0.000e+00   0.000e+00   -89.291   -89.313    -0.023     20.03
   S-2             0.000e+00   0.000e+00   -94.176   -94.265    -0.089     (0)  
   (H2S)2          0.000e+00   0.000e+00  -178.620  -178.620     0.000     36.24
S(6)          4.379e-04
   SO4-2           4.045e-04   3.297e-04    -3.393    -3.482    -0.089     14.28
   SrSO4           3.325e-05   3.326e-05    -4.478    -4.478     0.000     26.03
   HSO4-           1.550e-07   1.471e-07    -6.810    -6.832    -0.023     40.20
Sr            4.379e-04
   Sr+2            4.046e-04   3.302e-04    -3.393    -3.481    -0.088    -17.78
   SrSO4           3.325e-05   3.326e-05    -4.478    -4.478     0.000     26.03
   SrOH+           2.300e-11   2.186e-11   -10.638   -10.660    -0.022     (0)  

------------------------------Saturation indices-------------------------------

  Phase               SI** log IAP   log K(373 K, 267 atm)

  Celestite         0.00     -6.96   -6.96  SrSO4
  H2(g)           -26.38    -29.53   -3.15  H2
  H2O(g)            0.07     -0.00   -0.07  H2O
  H2S(g)          -87.34    -95.42   -8.08  H2S
  O2(g)           -11.20    -14.44   -3.24  O2
  Sulfur          -66.25    -62.93    3.32  S

**For a gas, SI = log10(fugacity). Fugacity = pressure * phi / 1 atm.
  For ideal gases, phi = 1.

Reaction step 6.

Using solution 1.	
Using pure phase assemblage 1.	
Using pressure 1.	

-------------------------------Phase assemblage--------------------------------

                                                      Moles in assemblage
Phase               SI  log IAP  log K(T, P)   Initial       Final       Delta

Celestite         0.00    -6.92     -6.92    1.000e+01   1.000e+01  -4.617e-04

-----------------------------Solution composition------------------------------

	Elements           Molality       Moles

	S                 4.617e-04   4.617e-04
	Sr                4.617e-04   4.617e-04

----------------------------Description of solution----------------------------

                                       pH  =   6.095      Charge balance
                                       pe  =   6.930      Adjusted to redox equilibrium
      Specific Conductance (µS/cm, 100°C)  = 346
                          Density (g/cm³)  =   0.97363
                               Volume (L)  =   1.02717
                        Viscosity (mPa s)  =   0.29097
                        Activity of water  =   1.000
                 Ionic strength (mol/kgw)  =   1.708e-03
                       Mass of water (kg)  =   1.000e+00
                 Total alkalinity (eq/kg)  =  -3.016e-16
                         Temperature (°C)  = 100.00
                           Pressure (atm)  = 333.78
                  Electrical balance (eq)  =   6.018e-14
 Percent error, 100*(Cat-|An|)/(Cat+|An|)  =   0.00
                               Iterations  =  11
                                  Total H  = 1.110124e+02
                                  Total O  = 5.550806e+01

----------------------------Distribution of species----------------------------

                                               Log       Log       Log    mole V
   Species          Molality    Activity  Molality  Activity     Gamma   cm³/mol

   OH-             1.003e-06   9.513e-07    -5.999    -6.022    -0.023     -7.20
   H+              8.438e-07   8.030e-07    -6.074    -6.095    -0.022      0.00
   H2O             5.551e+01   1.000e+00     1.744    -0.000     0.000     18.51
H(0)          5.709e-30
   H2              2.854e-30   2.856e-30   -29.544   -29.544     0.000     17.87
O(0)          7.196e-15
   O2              3.598e-15   3.600e-15   -14.444   -14.444     0.000     32.90
S(-2)         0.000e+00
   H2S             0.000e+00   0.000e+00   -89.020   -89.020     0.000     41.54
   HS-             0.000e+00   0.000e+00   -89.321   -89.344    -0.023     20.08
   S-2             0.000e+00   0.000e+00   -94.198   -94.289    -0.091     (0)  
   (H2S)2          0.000e+00   0.000e+00  -178.664  -178.664     0.000     38.91
S(6)          4.617e-04
   SO4-2           4.268e-04   3.464e-04    -3.370    -3.460    -0.091     14.70
   SrSO4           3.471e-05   3.473e-05    -4.460    -4.459     0.000     26.12
   HSO4-           1.595e-07   1.513e-07    -6.797    -6.820    -0.023     40.08
Sr            4.617e-04
   Sr+2            4.269e-04   3.470e-04    -3.370    -3.460    -0.090    -17.30
   SrSO4           3.471e-05   3.473e-05    -4.460    -4.459     0.000     26.12
   SrOH+           2.365e-11   2.245e-11   -10.626   -10.649    -0.023     (0)  

------------------------------Saturation indices-------------------------------

  Phase               SI** log IAP   log K(373 K, 334 atm)

  Celestite         0.00     -6.92   -6.92  SrSO4
  H2(g)           -26.37    -29.54   -3.17  H2
  H2O(g)            0.08     -0.00   -0.08  H2O
  H2S(g)          -87.34    -95.44   -8.10  H2S
  O2(g)           -11.17    -14.44   -3.27  O2
  Sulfur          -66.26    -62.97    3.29  S

**For a gas, SI = log10(fugacity). Fugacity = pressure * phi / 1 atm.
  For ideal gases, phi = 1.

Reaction step 7.

Using solution 1.	
Using pure phase assemblage 1.	
Using pressure 1.	

-------------------------------Phase assemblage--------------------------------

                                                      Moles in assemblage
Phase               SI  log IAP  log K(T, P)   Initial       Final       Delta

Celestite         0.00    -6.88     -6.88    1.000e+01   1.000e+01  -4.859e-04

-----------------------------Solution composition------------------------------

	Elements           Molality       Moles

	S                 4.859e-04   4.859e-04
	Sr                4.859e-04   4.859e-04

----------------------------Description of solution----------------------------

                                       pH  =   6.083      Charge balance
                                       pe  =   6.942      Adjusted to redox equilibrium
      Specific Conductance (µS/cm, 100°C)  = 363
                          Density (g/cm³)  =   0.97649
                               Volume (L)  =   1.02417
                        Viscosity (mPa s)  =   0.29275
                        Activity of water  =   1.000
                 Ionic strength (mol/kgw)  =   1.799e-03
                       Mass of water (kg)  =   1.000e+00
                 Total alkalinity (eq/kg)  =  -2.552e-16
                         Temperature (°C)  = 100.00
                           Pressure (atm)  = 400.33
                  Electrical balance (eq)  =   3.794e-14
 Percent error, 100*(Cat-|An|)/(Cat+|An|)  =   0.00
                               Iterations  =  11
                                  Total H  = 1.110124e+02
                                  Total O  = 5.550816e+01

----------------------------Distribution of species----------------------------

                                               Log       Log       Log    mole V
   Species          Molality    Activity  Molality  Activity     Gamma   cm³/mol

   OH-             1.034e-06   9.792e-07    -5.986    -6.009    -0.024     -7.43
   H+              8.696e-07   8.268e-07    -6.061    -6.083    -0.022      0.00
   H2O             5.551e+01   1.000e+00     1.744    -0.000     0.000     18.45
H(0)          5.524e-30
   H2              2.762e-30   2.763e-30   -29.559   -29.559     0.000     17.80
O(0)          7.196e-15
   O2              3.598e-15   3.600e-15   -14.444   -14.444     0.000     32.72
S(-2)         0.000e+00
   H2S             0.000e+00   0.000e+00   -89.052   -89.052     0.000     40.74
   HS-             0.000e+00   0.000e+00   -89.350   -89.374    -0.024     20.13
   S-2             0.000e+00   0.000e+00   -94.220   -94.312    -0.092     (0)  
   (H2S)2          0.000e+00   0.000e+00  -178.711  -178.711     0.000     41.46
S(6)          4.859e-04
   SO4-2           4.495e-04   3.633e-04    -3.347    -3.440    -0.092     15.10
   SrSO4           3.623e-05   3.625e-05    -4.441    -4.441     0.000     26.21
   HSO4-           1.642e-07   1.556e-07    -6.784    -6.808    -0.023     39.96
Sr            4.859e-04
   Sr+2            4.497e-04   3.639e-04    -3.347    -3.439    -0.092    -16.85
   SrSO4           3.623e-05   3.625e-05    -4.441    -4.441     0.000     26.21
   SrOH+           2.431e-11   2.305e-11   -10.614   -10.637    -0.023     (0)  

------------------------------Saturation indices-------------------------------

  Phase               SI** log IAP   log K(373 K, 400 atm)

  Celestite         0.00     -6.88   -6.88  SrSO4
  H2(g)           -26.37    -29.56   -3.19  H2
  H2O(g)            0.10     -0.00   -0.10  H2O
  H2S(g)          -87.34    -95.46   -8.12  H2S
  O2(g)           -11.14    -14.44   -3.30  O2
  Sulfur          -66.26    -63.00    3.25  S

**For a gas, SI = log10(fugacity). Fugacity = pressure * phi / 1 atm.
  For ideal gases, phi = 1.

Reaction step 8.

Using solution 1.	
Using pure phase assemblage 1.	
Using pressure 1.	

-------------------------------Phase assemblage--------------------------------

                                                      Moles in assemblage
Phase               SI  log IAP  log K(T, P)   Initial       Final       Delta

Celestite         0.00    -6.84     -6.84    1.000e+01   9.999e+00  -5.106e-04

-----------------------------Solution composition------------------------------

	Elements           Molality       Moles

	S                 5.106e-04   5.106e-04
	Sr                5.106e-04   5.106e-04

----------------------------Description of solution----------------------------

                                       pH  =   6.070      Charge balance
                                       pe  =   6.953      Adjusted to redox equilibrium
      Specific Conductance (µS/cm, 100°C)  = 380
                          Density (g/cm³)  =   0.97931
                               Volume (L)  =   1.02123
                        Viscosity (mPa s)  =   0.29452
                        Activity of water  =   1.000
                 Ionic strength (mol/kgw)  =   1.892e-03
                       Mass of water (kg)  =   1.000e+00
                 Total alkalinity (eq/kg)  =  -1.776e-16
                         Temperature (°C)  = 100.00
                           Pressure (atm)  = 466.89
                  Electrical balance (eq)  =   1.442e-14
 Percent error, 100*(Cat-|An|)/(Cat+|An|)  =   0.00
                               Iterations  =  11
                                  Total H  = 1.110124e+02
                                  Total O  = 5.550826e+01

----------------------------Distribution of species----------------------------

                                               Log       Log       Log    mole V
   Species          Molality    Activity  Molality  Activity     Gamma   cm³/mol

   OH-             1.066e-06   1.008e-06    -5.972    -5.996    -0.024     -7.64
   H+              8.964e-07   8.515e-07    -6.048    -6.070    -0.022      0.00
   H2O             5.551e+01   1.000e+00     1.744    -0.000     0.000     18.40
H(0)          5.347e-30
   H2              2.673e-30   2.675e-30   -29.573   -29.573     0.000     17.72
O(0)          7.196e-15
   O2              3.598e-15   3.600e-15   -14.444   -14.444     0.000     32.56
S(-2)         0.000e+00
   H2S             0.000e+00   0.000e+00   -89.083   -89.083     0.000     39.97
   HS-             0.000e+00   0.000e+00   -89.379   -89.403    -0.024     20.17
   S-2             0.000e+00   0.000e+00   -94.241   -94.335    -0.094     (0)  
   (H2S)2          0.000e+00   0.000e+00  -178.761  -178.761     0.000     43.89
S(6)          5.106e-04
   SO4-2           4.727e-04   3.804e-04    -3.325    -3.420    -0.094     15.48
   SrSO4           3.781e-05   3.782e-05    -4.422    -4.422     0.000     26.30
   HSO4-           1.693e-07   1.602e-07    -6.771    -6.795    -0.024     39.86
Sr            5.106e-04
   Sr+2            4.728e-04   3.811e-04    -3.325    -3.419    -0.094    -16.42
   SrSO4           3.781e-05   3.782e-05    -4.422    -4.422     0.000     26.30
   SrOH+           2.498e-11   2.366e-11   -10.602   -10.626    -0.024     (0)  

------------------------------Saturation indices-------------------------------

  Phase               SI** log IAP   log K(373 K, 467 atm)

  Celestite         0.00     -6.84   -6.84  SrSO4
  H2(g)           -26.37    -29.57   -3.20  H2
  H2O(g)            0.12     -0.00   -0.12  H2O
  H2S(g)          -87.34    -95.47   -8.14  H2S
  O2(g)           -11.11    -14.44   -3.33  O2
  Sulfur          -66.25    -63.04    3.22  S

**For a gas, SI = log10(fugacity). Fugacity = pressure * phi / 1 atm.
  For ideal gases, phi = 1.

Reaction step 9.

Using solution 1.	
Using pure phase assemblage 1.	
Using pressure 1.	

-------------------------------Phase assemblage--------------------------------

                                                      Moles in assemblage
Phase               SI  log IAP  log K(T, P)   Initial       Final       Delta

Celestite        -0.00    -6.80     -6.80    1.000e+01   9.999e+00  -5.358e-04

-----------------------------Solution composition------------------------------

	Elements           Molality       Moles

	S                 5.358e-04   5.358e-04
	Sr                5.358e-04   5.358e-04

----------------------------Description of solution----------------------------

                                       pH  =   6.057      Charge balance
                                       pe  =   6.965      Adjusted to redox equilibrium
      Specific Conductance (µS/cm, 100°C)  = 398
                          Density (g/cm³)  =   0.98208
                               Volume (L)  =   1.01835
                        Viscosity (mPa s)  =   0.29628
                        Activity of water  =   1.000
                 Ionic strength (mol/kgw)  =   1.986e-03
                       Mass of water (kg)  =   1.000e+00
                 Total alkalinity (eq/kg)  =  -6.682e-17
                         Temperature (°C)  = 100.00
                           Pressure (atm)  = 533.44
                  Electrical balance (eq)  =  -1.061e-14
 Percent error, 100*(Cat-|An|)/(Cat+|An|)  =  -0.00
                               Iterations  =  11
                                  Total H  = 1.110124e+02
                                  Total O  = 5.550836e+01

----------------------------Distribution of species----------------------------

                                               Log       Log       Log    mole V
   Species          Molality    Activity  Molality  Activity     Gamma   cm³/mol

   OH-             1.099e-06   1.038e-06    -5.959    -5.984    -0.025     -7.84
   H+              9.242e-07   8.772e-07    -6.034    -6.057    -0.023      0.00
   H2O             5.551e+01   1.000e+00     1.744    -0.000     0.000     18.35
H(0)          5.177e-30
   H2              2.589e-30   2.590e-30   -29.587   -29.587     0.000     17.65
O(0)          7.196e-15
   O2              3.598e-15   3.600e-15   -14.444   -14.444     0.000     32.40
S(-2)         0.000e+00
   H2S             0.000e+00   0.000e+00   -89.112   -89.112     0.000     39.24
   HS-             0.000e+00   0.000e+00   -89.407   -89.432    -0.025     20.21
   S-2             0.000e+00   0.000e+00   -94.262   -94.357    -0.096     (0)  
   (H2S)2          0.000e+00   0.000e+00  -178.813  -178.813     0.000     46.23
S(6)          5.358e-04
   SO4-2           4.962e-04   3.978e-04    -3.304    -3.400    -0.096     15.85
   SrSO4           3.944e-05   3.946e-05    -4.404    -4.404     0.000     26.38
   HSO4-           1.745e-07   1.650e-07    -6.758    -6.783    -0.024     39.76
Sr            5.358e-04
   Sr+2            4.964e-04   3.985e-04    -3.304    -3.400    -0.095    -16.00
   SrSO4           3.944e-05   3.946e-05    -4.404    -4.404     0.000     26.38
   SrOH+           2.565e-11   2.427e-11   -10.591   -10.615    -0.024     (0)  

------------------------------Saturation indices-------------------------------

  Phase               SI** log IAP   log K(373 K, 533 atm)

  Celestite        -0.00     -6.80   -6.80  SrSO4
  H2(g)           -26.37    -29.59   -3.22  H2
  H2O(g)            0.13     -0.00   -0.13  H2O
  H2S(g)          -87.33    -95.49   -8.16  H2S
  O2(g)           -11.08    -14.44   -3.36  O2
  Sulfur          -66.25    -63.07    3.19  S

**For a gas, SI = log10(fugacity). Fugacity = pressure * phi / 1 atm.
  For ideal gases, phi = 1.

Reaction step 10.

Using solution 1.	
Using pure phase assemblage 1.	
Using pressure 1.	

-------------------------------Phase assemblage--------------------------------

                                                      Moles in assemblage
Phase               SI  log IAP  log K(T, P)   Initial       Final       Delta

Celestite        -0.00    -6.76     -6.76    1.000e+01   9.999e+00  -5.615e-04

-----------------------------Solution composition------------------------------

	Elements           Molality       Moles

	S                 5.615e-04   5.615e-04
	Sr                5.615e-04   5.615e-04

----------------------------Description of solution----------------------------

                                       pH  =   6.044      Charge balance
                                       pe  =   6.977      Adjusted to redox equilibrium
      Specific Conductance (µS/cm, 100°C)  = 415
                          Density (g/cm³)  =   0.98481
                               Volume (L)  =   1.01553
                        Viscosity (mPa s)  =   0.29804
                        Activity of water  =   1.000
                 Ionic strength (mol/kgw)  =   2.082e-03
                       Mass of water (kg)  =   1.000e+00
                 Total alkalinity (eq/kg)  =   8.052e-17
                         Temperature (°C)  = 100.00
                           Pressure (atm)  = 600.00
                  Electrical balance (eq)  =  -3.738e-14
 Percent error, 100*(Cat-|An|)/(Cat+|An|)  =  -0.00
                               Iterations  =  11
                                  Total H  = 1.110124e+02
                                  Total O  = 5.550846e+01

----------------------------Distribution of species----------------------------

                                               Log       Log       Log    mole V
   Species          Molality    Activity  Molality  Activity     Gamma   cm³/mol

   OH-             1.133e-06   1.070e-06    -5.946    -5.971    -0.025     -8.04
   H+              9.532e-07   9.038e-07    -6.021    -6.044    -0.023      0.00
[...]
   HSO4-           2.521e-06   2.417e-06    -5.598    -5.617    -0.018     30.88
Sr            1.526e-04
   Sr+2            1.461e-04   1.237e-04    -3.835    -3.908    -0.072    -24.85
   SrSO4           6.538e-06   6.539e-06    -5.185    -5.184     0.000     26.44
   SrOH+           3.980e-12   3.818e-12   -11.400   -11.418    -0.018     (0)  

------------------------------Saturation indices-------------------------------

  Phase               SI** log IAP   log K(473 K, 267 atm)

  Celestite         0.00     -7.82   -7.82  SrSO4
  H2(g)           -20.29    -23.11   -2.82  H2
  H2O(g)            1.21     -0.00   -1.21  H2O
  H2S(g)          -67.55    -76.14   -8.60  H2S
  O2(g)           -12.22    -15.20   -2.98  O2
  Sulfur          -51.96    -49.81    2.16  S

**For a gas, SI = log10(fugacity). Fugacity = pressure * phi / 1 atm.
  For ideal gases, phi = 1.

Reaction step 6.

Using solution 1.	
Using pure phase assemblage 1.	
Using pressure 1.	

-------------------------------Phase assemblage--------------------------------

                                                      Moles in assemblage
Phase               SI  log IAP  log K(T, P)   Initial       Final       Delta

Celestite         0.00    -7.77     -7.77    1.000e+01   1.000e+01  -1.633e-04

-----------------------------Solution composition------------------------------

	Elements           Molality       Moles

	S                 1.633e-04   1.633e-04
	Sr                1.633e-04   1.633e-04

----------------------------Description of solution----------------------------

                                       pH  =   5.776      Charge balance
                                       pe  =   3.930      Adjusted to redox equilibrium
      Specific Conductance (µS/cm, 200°C)  = 240
                          Density (g/cm³)  =   0.88692
                               Volume (L)  =   1.12753
                        Viscosity (mPa s)  =   0.14249
                        Activity of water  =   1.000
                 Ionic strength (mol/kgw)  =   6.254e-04
                       Mass of water (kg)  =   1.000e+00
                 Total alkalinity (eq/kg)  =  -1.575e-14
                         Temperature (°C)  = 200.00
                           Pressure (atm)  = 333.78
                  Electrical balance (eq)  =  -2.880e-13
 Percent error, 100*(Cat-|An|)/(Cat+|An|)  =  -0.00
                               Iterations  =  11
                                  Total H  = 1.110124e+02
                                  Total O  = 5.550687e+01

----------------------------Distribution of species----------------------------

                                               Log       Log       Log    mole V
   Species          Molality    Activity  Molality  Activity     Gamma   cm³/mol

   OH-             4.347e-06   4.163e-06    -5.362    -5.381    -0.019    -23.24
   H+              1.744e-06   1.674e-06    -5.758    -5.776    -0.018      0.00
   H2O             5.551e+01   1.000e+00     1.744    -0.000     0.000     20.31
H(0)          1.511e-23
   H2              7.556e-24   7.557e-24   -23.122   -23.122     0.000     21.96
O(0)          1.275e-15
   O2              6.376e-16   6.376e-16   -15.195   -15.195     0.000     37.04
S(-2)         0.000e+00
   H2S             0.000e+00   0.000e+00   -69.252   -69.252     0.000     49.38
   HS-             0.000e+00   0.000e+00   -70.356   -70.374    -0.019      8.84
   S-2             0.000e+00   0.000e+00   -74.129   -74.203    -0.074     (0)  
   (H2S)2          0.000e+00   0.000e+00  -139.172  -139.172     0.000     17.25
S(6)          1.633e-04
   SO4-2           1.540e-04   1.298e-04    -3.813    -3.887    -0.074    -18.72
   SrSO4           6.762e-06   6.763e-06    -5.170    -5.170     0.000     26.50
   HSO4-           2.602e-06   2.492e-06    -5.585    -5.603    -0.019     31.31
Sr            1.633e-04
   Sr+2            1.566e-04   1.321e-04    -3.805    -3.879    -0.074    -24.01
   SrSO4           6.762e-06   6.763e-06    -5.170    -5.170     0.000     26.50
   SrOH+           4.091e-12   3.920e-12   -11.388   -11.407    -0.019     (0)  

------------------------------Saturation indices-------------------------------

  Phase               SI** log IAP   log K(473 K, 334 atm)

  Celestite         0.00     -7.77   -7.77  SrSO4
  H2(g)           -20.28    -23.12   -2.84  H2
  H2O(g)            1.23     -0.00   -1.23  H2O
  H2S(g)          -67.54    -76.15   -8.61  H2S
  O2(g)           -12.19    -15.20   -3.01  O2
  Sulfur          -51.96    -49.84    2.12  S

**For a gas, SI = log10(fugacity). Fugacity = pressure * phi / 1 atm.
  For ideal gases, phi = 1.

Reaction step 7.

Using solution 1.	
Using pure phase assemblage 1.	
Using pressure 1.	

-------------------------------Phase assemblage--------------------------------

                                                      Moles in assemblage
Phase               SI  log IAP  log K(T, P)   Initial       Final       Delta

Celestite        -0.00    -7.71     -7.71    1.000e+01   1.000e+01  -1.740e-04

-----------------------------Solution composition------------------------------

	Elements           Molality       Moles

	S                 1.740e-04   1.740e-04
	Sr                1.740e-04   1.740e-04

----------------------------Description of solution----------------------------

                                       pH  =   5.760      Charge balance
                                       pe  =   3.945      Adjusted to redox equilibrium
      Specific Conductance (µS/cm, 200°C)  = 254
                          Density (g/cm³)  =   0.89114
                               Volume (L)  =   1.12219
                        Viscosity (mPa s)  =   0.14402
                        Activity of water  =   1.000
                 Ionic strength (mol/kgw)  =   6.673e-04
                       Mass of water (kg)  =   1.000e+00
                 Total alkalinity (eq/kg)  =   4.564e-15
                         Temperature (°C)  = 200.00
                           Pressure (atm)  = 400.33
                  Electrical balance (eq)  =   7.799e-14
 Percent error, 100*(Cat-|An|)/(Cat+|An|)  =   0.00
                               Iterations  =  11
                                  Total H  = 1.110124e+02
                                  Total O  = 5.550692e+01

----------------------------Distribution of species----------------------------

                                               Log       Log       Log    mole V
   Species          Molality    Activity  Molality  Activity     Gamma   cm³/mol

   OH-             4.497e-06   4.302e-06    -5.347    -5.366    -0.019    -22.82
   H+              1.811e-06   1.736e-06    -5.742    -5.760    -0.018      0.00
   H2O             5.551e+01   1.000e+00     1.744    -0.000     0.000     20.22
H(0)          1.466e-23
   H2              7.328e-24   7.329e-24   -23.135   -23.135     0.000     21.67
O(0)          1.275e-15
   O2              6.376e-16   6.377e-16   -15.195   -15.195     0.000     36.66
S(-2)         0.000e+00
   H2S             0.000e+00   0.000e+00   -69.281   -69.281     0.000     48.25
   HS-             0.000e+00   0.000e+00   -70.378   -70.397    -0.019      9.51
   S-2             0.000e+00   0.000e+00   -74.156   -74.232    -0.076     (0)  
   (H2S)2          0.000e+00   0.000e+00  -139.197  -139.196     0.000     20.96
S(6)          1.740e-04
   SO4-2           1.644e-04   1.380e-04    -3.784    -3.860    -0.076    -16.55
   SrSO4           6.991e-06   6.993e-06    -5.155    -5.155     0.000     26.57
   HSO4-           2.686e-06   2.570e-06    -5.571    -5.590    -0.019     31.69
Sr            1.740e-04
   Sr+2            1.670e-04   1.403e-04    -3.777    -3.853    -0.076    -23.22
   SrSO4           6.991e-06   6.993e-06    -5.155    -5.155     0.000     26.57
   SrOH+           4.200e-12   4.020e-12   -11.377   -11.396    -0.019     (0)  

------------------------------Saturation indices-------------------------------

  Phase               SI** log IAP   log K(473 K, 400 atm)

  Celestite        -0.00     -7.71   -7.71  SrSO4
  H2(g)           -20.28    -23.13   -2.85  H2
  H2O(g)            1.24     -0.00   -1.24  H2O
  H2S(g)          -67.54    -76.16   -8.62  H2S
  O2(g)           -12.16    -15.20   -3.03  O2
  Sulfur          -51.96    -49.87    2.09  S

**For a gas, SI = log10(fugacity). Fugacity = pressure * phi / 1 atm.
  For ideal gases, phi = 1.

Reaction step 8.

Using solution 1.	
Using pure phase assemblage 1.	
Using pressure 1.	

-------------------------------Phase assemblage--------------------------------

                                                      Moles in assemblage
Phase               SI  log IAP  log K(T, P)   Initial       Final       Delta

Celestite        -0.00    -7.66     -7.66    1.000e+01   1.000e+01  -1.847e-04

-----------------------------Solution composition------------------------------

	Elements           Molality       Moles

	S                 1.847e-04   1.847e-04
	Sr                1.847e-04   1.847e-04

----------------------------Description of solution----------------------------

                                       pH  =   5.745      Charge balance
                                       pe  =   3.960      Adjusted to redox equilibrium
      Specific Conductance (µS/cm, 200°C)  = 269
                          Density (g/cm³)  =   0.89524
                               Volume (L)  =   1.11706
                        Viscosity (mPa s)  =   0.14553
                        Activity of water  =   1.000
                 Ionic strength (mol/kgw)  =   7.092e-04
                       Mass of water (kg)  =   1.000e+00
                 Total alkalinity (eq/kg)  =   1.329e-14
                         Temperature (°C)  = 200.00
                           Pressure (atm)  = 466.89
                  Electrical balance (eq)  =   9.123e-14
 Percent error, 100*(Cat-|An|)/(Cat+|An|)  =   0.00
                               Iterations  =  11
                                  Total H  = 1.110124e+02
                                  Total O  = 5.550696e+01

----------------------------Distribution of species----------------------------

                                               Log       Log       Log    mole V
   Species          Molality    Activity  Molality  Activity     Gamma   cm³/mol

   OH-             4.650e-06   4.444e-06    -5.333    -5.352    -0.020    -22.45
   H+              1.878e-06   1.799e-06    -5.726    -5.745    -0.019      0.00
   H2O             5.551e+01   1.000e+00     1.744    -0.000     0.000     20.13
H(0)          1.423e-23
   H2              7.114e-24   7.116e-24   -23.148   -23.148     0.000     21.40
O(0)          1.275e-15
   O2              6.375e-16   6.376e-16   -15.196   -15.195     0.000     36.31
S(-2)         0.000e+00
   H2S             0.000e+00   0.000e+00   -69.308   -69.308     0.000     47.18
   HS-             0.000e+00   0.000e+00   -70.400   -70.420    -0.020     10.12
   S-2             0.000e+00   0.000e+00   -74.182   -74.260    -0.078     (0)  
   (H2S)2          0.000e+00   0.000e+00  -139.224  -139.224     0.000     24.47
S(6)          1.847e-04
   SO4-2           1.747e-04   1.462e-04    -3.758    -3.835    -0.078    -14.53
   SrSO4           7.228e-06   7.229e-06    -5.141    -5.141     0.000     26.63
   HSO4-           2.772e-06   2.649e-06    -5.557    -5.577    -0.020     32.04
Sr            1.847e-04
   Sr+2            1.775e-04   1.486e-04    -3.751    -3.828    -0.077    -22.48
   SrSO4           7.228e-06   7.229e-06    -5.141    -5.141     0.000     26.63
   SrOH+           4.306e-12   4.118e-12   -11.366   -11.385    -0.019     (0)  

------------------------------Saturation indices-------------------------------

  Phase               SI** log IAP   log K(473 K, 467 atm)

  Celestite        -0.00     -7.66   -7.66  SrSO4
  H2(g)           -20.28    -23.15   -2.87  H2
  H2O(g)            1.26     -0.00   -1.26  H2O
  H2S(g)          -67.54    -76.16   -8.63  H2S
  O2(g)           -12.14    -15.20   -3.06  O2
  Sulfur          -51.96    -49.90    2.06  S

**For a gas, SI = log10(fugacity). Fugacity = pressure * phi / 1 atm.
  For ideal gases, phi = 1.

Reaction step 9.

Using solution 1.	
Using pure phase assemblage 1.	
Using pressure 1.	

-------------------------------Phase assemblage--------------------------------

                                                      Moles in assemblage
Phase               SI  log IAP  log K(T, P)   Initial       Final       Delta

Celestite        -0.00    -7.62     -7.62    1.000e+01   1.000e+01  -1.954e-04

-----------------------------Solution composition------------------------------

	Elements           Molality       Moles

	S                 1.954e-04   1.954e-04
	Sr                1.954e-04   1.954e-04

----------------------------Description of solution----------------------------

                                       pH  =   5.730      Charge balance
                                       pe  =   3.974      Adjusted to redox equilibrium
      Specific Conductance (µS/cm, 200°C)  = 283
                          Density (g/cm³)  =   0.89921
                               Volume (L)  =   1.11213
                        Viscosity (mPa s)  =   0.14702
                        Activity of water  =   1.000
                 Ionic strength (mol/kgw)  =   7.510e-04
                       Mass of water (kg)  =   1.000e+00
                 Total alkalinity (eq/kg)  =   1.491e-14
                         Temperature (°C)  = 200.00
                           Pressure (atm)  = 533.44
                  Electrical balance (eq)  =   5.341e-14
 Percent error, 100*(Cat-|An|)/(Cat+|An|)  =   0.00
                               Iterations  =  11
                                  Total H  = 1.110124e+02
                                  Total O  = 5.550700e+01

----------------------------Distribution of species----------------------------

                                               Log       Log       Log    mole V
   Species          Molality    Activity  Molality  Activity     Gamma   cm³/mol

   OH-             4.806e-06   4.590e-06    -5.318    -5.338    -0.020    -22.12
   H+              1.947e-06   1.863e-06    -5.711    -5.730    -0.019      0.00
   H2O             5.551e+01   1.000e+00     1.744    -0.000     0.000     20.04
H(0)          1.383e-23
   H2              6.913e-24   6.914e-24   -23.160   -23.160     0.000     21.14
O(0)          1.275e-15
   O2              6.375e-16   6.376e-16   -15.196   -15.195     0.000     35.97
S(-2)         0.000e+00
   H2S             0.000e+00   0.000e+00   -69.333   -69.333     0.000     46.16
   HS-             0.000e+00   0.000e+00   -70.422   -70.442    -0.020     10.69
   S-2             0.000e+00   0.000e+00   -74.207   -74.286    -0.079     (0)  
   (H2S)2          0.000e+00   0.000e+00  -139.254  -139.254     0.000     27.79
S(6)          1.954e-04
   SO4-2           1.851e-04   1.543e-04    -3.733    -3.812    -0.079    -12.67
   SrSO4           7.470e-06   7.472e-06    -5.127    -5.127     0.000     26.69
   HSO4-           2.860e-06   2.731e-06    -5.544    -5.564    -0.020     32.36
Sr            1.954e-04
   Sr+2            1.880e-04   1.568e-04    -3.726    -3.805    -0.079    -21.78
   SrSO4           7.470e-06   7.472e-06    -5.127    -5.127     0.000     26.69
   SrOH+           4.410e-12   4.214e-12   -11.356   -11.375    -0.020     (0)  

------------------------------Saturation indices-------------------------------

  Phase               SI** log IAP   log K(473 K, 533 atm)

  Celestite        -0.00     -7.62   -7.62  SrSO4
  H2(g)           -20.28    -23.16   -2.88  H2
  H2O(g)            1.27     -0.00   -1.27  H2O
  H2S(g)          -67.53    -76.17   -8.64  H2S
  O2(g)           -12.11    -15.20   -3.08  O2
  Sulfur          -51.96    -49.93    2.03  S

**For a gas, SI = log10(fugacity). Fugacity = pressure * phi / 1 atm.
  For ideal gases, phi = 1.

Reaction step 10.

Using solution 1.	
Using pure phase assemblage 1.	
Using pressure 1.	

-------------------------------Phase assemblage--------------------------------

                                                      Moles in assemblage
Phase               SI  log IAP  log K(T, P)   Initial       Final       Delta

Celestite        -0.00    -7.57     -7.57    1.000e+01   1.000e+01  -2.061e-04

-----------------------------Solution composition------------------------------

	Elements           Molality       Moles

	S                 2.061e-04   2.061e-04
	Sr                2.061e-04   2.061e-04

----------------------------Description of solution----------------------------

                                       pH  =   5.715      Charge balance
                                       pe  =   3.988      Adjusted to redox equilibrium
      Specific Conductance (µS/cm, 200°C)  = 297
                          Density (g/cm³)  =   0.90306
                               Volume (L)  =   1.10738
                        Viscosity (mPa s)  =   0.14849
                        Activity of water  =   1.000
                 Ionic strength (mol/kgw)  =   7.927e-04
                       Mass of water (kg)  =   1.000e+00
                 Total alkalinity (eq/kg)  =   1.282e-14
                         Temperature (°C)  = 200.00
                           Pressure (atm)  = 600.00
                  Electrical balance (eq)  =   2.618e-14
 Percent error, 100*(Cat-|An|)/(Cat+|An|)  =   0.00
                               Iterations  =  11
                                  Total H  = 1.110124e+02
                                  Total O  = 5.550704e+01

----------------------------Distribution of species----------------------------

                                               Log       Log       Log    mole V
   Species          Molality    Activity  Molality  Activity     Gamma   cm³/mol

   OH-             4.967e-06   4.739e-06    -5.304    -5.324    -0.020    -21.82
   H+              2.016e-06   1.928e-06    -5.695    -5.715    -0.019      0.00
   H2O             5.551e+01   1.000e+00     1.744    -0.000     0.000     19.95
H(0)          1.345e-23
   H2              6.723e-24   6.724e-24   -23.172   -23.172     0.000     20.90
O(0)          1.275e-15
   O2              6.375e-16   6.376e-16   -15.196   -15.195     0.000     35.66
S(-2)         0.000e+00
   H2S             0.000e+00   0.000e+00   -69.356   -69.356     0.000     45.19
   HS-             0.000e+00   0.000e+00   -70.443   -70.463    -0.020     11.22
   S-2             0.000e+00   0.000e+00   -74.231   -74.311    -0.081     (0)  
   (H2S)2          0.000e+00   0.000e+00  -139.285  -139.285     0.000     30.94
S(6)          2.061e-04
   SO4-2           1.955e-04   1.624e-04    -3.709    -3.789    -0.081    -10.93
   SrSO4           7.720e-06   7.722e-06    -5.112    -5.112     0.000     26.75
   HSO4-           2.951e-06   2.816e-06    -5.530    -5.550    -0.020     32.65
Sr            2.061e-04
   Sr+2            1.984e-04   1.649e-04    -3.702    -3.783    -0.080    -21.13
   SrSO4           7.720e-06   7.722e-06    -5.112    -5.112     0.000     26.75
   SrOH+           4.513e-12   4.308e-12   -11.346   -11.366    -0.020     (0)  

------------------------------Saturation indices-------------------------------

  Phase               SI** log IAP   log K(473 K, 600 atm)

  Celestite        -0.00     -7.57   -7.57  SrSO4
  H2(g)           -20.28    -23.17   -2.89  H2
  H2O(g)            1.29     -0.00   -1.29  H2O
  H2S(g)          -67.53    -76.18   -8.65  H2S
  O2(g)           -12.09    -15.20   -3.11  O2
  Sulfur          -51.95    -49.95    2.00  S

**For a gas, SI = log10(fugacity). Fugacity = pressure * phi / 1 atm.
  For ideal gases, phi = 1.

------------------
End of simulation.
------------------

------------------------------------
Reading input data for simulation 4.
------------------------------------

