WARNING: Database file from DATABASE keyword is used; command line argument ignored.
   Input file: ss_incr
  Output file: ss_incr.out
Database file: ../database/phreeqc.dat

------------------
Reading data base.
------------------

	SOLUTION_MASTER_SPECIES
	SOLUTION_SPECIES
	PHASES
	GAS_BINARY_PARAMETERS
	EXCHANGE_MASTER_SPECIES
	EXCHANGE_SPECIES
	SURFACE_MASTER_SPECIES
	SURFACE_SPECIES
	MEAN_GAMMAS
	RATES
	END
------------------------------------
Reading input data for simulation 1.
------------------------------------

	database ../database/phreeqc.dat
	SELECTED_OUTPUT 101
	    file                 ss_incr_101.sel
	USER_PUNCH 101
	    headings Mu SC
	    start
	10 PUNCH STR_e$(MU, 10, 5)
	20 PUNCH STR_e$(SC, 10, 5) #: put(iterations + get(10201), 10201) : if (get(10200) = 1) then punch str_f$(get(10201), 10, 0)
	    end
	PHASES
	AFm_1
	 Ca2Al(SO4)0.5        (OH)6:3H2O = 2 Ca+2 + Al(OH)4- + 0.5 SO4-2 +            2 OH- + 3 H2O
	 log_k -14.77
	NO3_OH_AFm_1
	 Ca2Al(NO3)0.5 (OH)0.5(OH)6:3H2O = 2 Ca+2 + Al(OH)4- + 0.5 NO3- + 0.5 OH- + 2 OH- + 3 H2O
	 log_k  -14.0
	SOLUTION 1
	pH 7 charge
	REACTION 1
	AFm_1 12.000001e-3
	SAVE solution 1
	END
-------------------------------------------
Beginning of initial solution calculations.
-------------------------------------------

Initial solution 1.	

-----------------------------Solution composition------------------------------

	Elements           Molality       Moles

	Pure water     

----------------------------Description of solution----------------------------

                                       pH  =   6.997      Charge balance
                                       pe  =   4.000    
      Specific Conductance (µS/cm,  25°C)  = 0
                          Density (g/cm³)  =   0.99704
                               Volume (L)  =   1.00297
                        Viscosity (mPa s)  =   0.89002
                        Activity of water  =   1.000
                 Ionic strength (mol/kgw)  =   1.006e-07
                       Mass of water (kg)  =   1.000e+00
                 Total alkalinity (eq/kg)  =   3.040e-17
                         Temperature (°C)  =  25.00
                  Electrical balance (eq)  =  -3.040e-17
 Percent error, 100*(Cat-|An|)/(Cat+|An|)  =  -0.00
                               Iterations  =   2
                                  Total H  = 1.110124e+02
                                  Total O  = 5.550622e+01

----------------------------Distribution of species----------------------------

                                               Log       Log       Log    mole V
   Species          Molality    Activity  Molality  Activity     Gamma   cm³/mol

   OH-             1.006e-07   1.006e-07    -6.997    -6.997    -0.000     -4.14
   H+              1.006e-07   1.006e-07    -6.997    -6.997    -0.000      0.00
   H2O             5.551e+01   1.000e+00     1.744    -0.000     0.000     18.07
H(0)          1.433e-25
   H2              7.166e-26   7.166e-26   -25.145   -25.145     0.000     14.99
O(0)          0.000e+00
   O2              0.000e+00   0.000e+00   -42.073   -42.073     0.000     30.40

------------------------------Saturation indices-------------------------------

  Phase               SI** log IAP   log K(298 K,   1 atm)

  H2(g)           -22.05    -25.14   -3.10  H2
  H2O(g)           -1.50     -0.00    1.50  H2O
  O2(g)           -39.18    -42.07   -2.89  O2

**For a gas, SI = log10(fugacity). Fugacity = pressure * phi / 1 atm.
  For ideal gases, phi = 1.

-----------------------------------------
Beginning of batch-reaction calculations.
-----------------------------------------

Reaction step 1.

Using solution 1.	
Using reaction 1.	

Reaction 1.	

	  1.000e+00 moles of the following reaction have been added:

	                 Relative
	Reactant            moles

	AFm_1                0.01200

	                 Relative
	Element             moles
	Al                   0.01200
	Ca                   0.02400
	H                    0.14400
	O                    0.13200
	S                    0.00600

-----------------------------Solution composition------------------------------

	Elements           Molality       Moles

	Al                1.199e-02   1.200e-02
	Ca                2.398e-02   2.400e-02
	S                 5.996e-03   6.000e-03

----------------------------Description of solution----------------------------

                                       pH  =  12.220      Charge balance
                                       pe  =  -6.268      Adjusted to redox equilibrium
      Specific Conductance (µS/cm,  25°C)  = 6024
                          Density (g/cm³)  =   1.00046
                               Volume (L)  =   1.00327
                        Viscosity (mPa s)  =   0.90348
                        Activity of water  =   0.999
                 Ionic strength (mol/kgw)  =   6.418e-02
                       Mass of water (kg)  =   1.001e+00
                 Total alkalinity (eq/kg)  =   7.195e-02
                         Temperature (°C)  =  25.00
                  Electrical balance (eq)  =  -1.155e-10
 Percent error, 100*(Cat-|An|)/(Cat+|An|)  =  -0.00
                               Iterations  =  18
                                  Total H  = 1.111564e+02
                                  Total O  = 5.563822e+01

----------------------------Distribution of species----------------------------

                                               Log       Log       Log    mole V
   Species          Molality    Activity  Molality  Activity     Gamma   cm³/mol

   OH-             2.111e-02   1.676e-02    -1.676    -1.776    -0.100     -3.83
   H+              7.150e-13   6.032e-13   -12.146   -12.220    -0.074      0.00
   H2O             5.551e+01   9.990e-01     1.744    -0.000     0.000     18.07
Al            1.199e-02
   Al(OH)4-        1.199e-02   9.658e-03    -1.921    -2.015    -0.094     (0)  
   Al(OH)3         3.049e-09   3.094e-09    -8.516    -8.509     0.006     (0)  
   Al(OH)2+        1.557e-14   1.268e-14   -13.808   -13.897    -0.089     (0)  
   AlOH+2          2.220e-21   9.768e-22   -20.654   -21.010    -0.357    -27.21
   AlSO4+          3.992e-28   3.215e-28   -27.399   -27.493    -0.094     (0)  
   Al+3            2.745e-28   5.938e-29   -27.562   -28.226    -0.665    -41.28
   Al(SO4)2-       2.162e-29   1.741e-29   -28.665   -28.759    -0.094     (0)  
   AlHSO4+2        0.000e+00   0.000e+00   -40.391   -40.765    -0.373     (0)  
Ca            2.398e-02
   Ca+2            1.910e-02   8.447e-03    -1.719    -2.073    -0.354    -17.56
   CaOH+           2.878e-03   2.322e-03    -2.541    -2.634    -0.093     (0)  
   CaSO4           2.004e-03   2.018e-03    -2.698    -2.695     0.003      7.22
   CaHSO4+         1.264e-14   1.020e-14   -13.898   -13.991    -0.093     (0)  
H(0)          1.743e-15
   H2              8.713e-16   8.850e-16   -15.060   -15.053     0.007     14.99
O(0)          0.000e+00
   O2              0.000e+00   0.000e+00   -62.264   -62.257     0.006     30.40
S(-2)         1.949e-29
   HS-             1.424e-29   1.131e-29   -28.846   -28.946    -0.100     20.81
   S-2             5.249e-30   2.265e-30   -29.280   -29.645    -0.365     (0)  
   H2S             5.879e-35   5.966e-35   -34.231   -34.224     0.006     36.27
   (H2S)2          0.000e+00   0.000e+00   -69.733   -69.727     0.006     30.09
S(6)          5.996e-03
   SO4-2           3.992e-03   1.712e-03    -2.399    -2.766    -0.368     15.00
   CaSO4           2.004e-03   2.018e-03    -2.698    -2.695     0.003      7.22
   HSO4-           1.245e-13   1.004e-13   -12.905   -12.998    -0.093     40.48
   CaHSO4+         1.264e-14   1.020e-14   -13.898   -13.991    -0.093     (0)  
   AlSO4+          3.992e-28   3.215e-28   -27.399   -27.493    -0.094     (0)  
   Al(SO4)2-       2.162e-29   1.741e-29   -28.665   -28.759    -0.094     (0)  
   AlHSO4+2        0.000e+00   0.000e+00   -40.391   -40.765    -0.373     (0)  

------------------------------Saturation indices-------------------------------

  Phase               SI** log IAP   log K(298 K,   1 atm)

  AFm_1             3.67    -11.10  -14.77  Ca2Al(SO4)0.5(OH)6:3H2O
  Al(OH)3(a)       -2.37      8.43   10.80  Al(OH)3
  Anhydrite        -0.53     -4.84   -4.31  CaSO4
  Gibbsite          0.32      8.43    8.11  Al(OH)3
  Gypsum           -0.29     -4.84   -4.55  CaSO4:2H2O
  H2(g)           -11.95    -15.05   -3.10  H2
  H2O(g)           -1.50     -0.00    1.50  H2O
  H2S(g)          -33.23    -41.17   -7.94  H2S
  O2(g)           -59.36    -62.26   -2.89  O2
  Sulfur          -27.20    -22.32    4.88  S

**For a gas, SI = log10(fugacity). Fugacity = pressure * phi / 1 atm.
  For ideal gases, phi = 1.

------------------
End of simulation.
------------------

------------------------------------
Reading input data for simulation 2.
------------------------------------

	USE solution 1
	knobs
	step_size 10
	pe_step_size 2
	SOLID_SOLUTIONS 1
	nn
	 component NO3_OH_AFm_1 0
	   component AFm_1 0
	REACTION 
	SO4 -0.5 NO3 1
	 0e-5 12e-3
	INCREMENTAL_REACTIONS true
	USER_GRAPH 
	-headings x Ca Al NO3
	10 graph_x sys("N") / 12e-3
	20 graph_y tot("Ca"), tot("Al"), tot("N")
	SAVE solid_solutions 1
	END
-----------------------------------------
Beginning of batch-reaction calculations.
-----------------------------------------

Reaction step 1.

WARNING: Element N is contained in solid solution NO3_OH_AFm_1 (which has 0.0 mass),
but is not in solution or other phases.
Using solution 1.	Solution after simulation 1.
Using solid solution assemblage 1.	
Using reaction 1.	

Reaction 1.	

	  0.000e+00 moles of the following reaction have been added:

	                 Relative
	Reactant            moles

	NO3                  1.00000
	SO4                 -0.50000

	                 Relative
	Element             moles
	N                    1.00000
	O                    1.00000
	S                   -0.50000

--------------------------------Solid solutions--------------------------------


Solid solution                Component        Moles  Delta moles   Mole fract

nn                                          1.02e-02
                           NO3_OH_AFm_1     1.00e-27     0.00e+00     9.81e-26
                                  AFm_1     1.02e-02     1.02e-02     1.00e+00

-----------------------------Solution composition------------------------------

	Elements           Molality       Moles

	Al                1.803e-03   1.803e-03
	Ca                3.606e-03   3.607e-03
	S                 9.015e-04   9.016e-04

----------------------------Description of solution----------------------------

                                       pH  =  11.489      Charge balance
                                       pe  =  -5.106      Adjusted to redox equilibrium
      Specific Conductance (µS/cm,  25°C)  = 1107
                          Density (g/cm³)  =   0.99757
                               Volume (L)  =   1.00300
                        Viscosity (mPa s)  =   0.89301
                        Activity of water  =   1.000
                 Ionic strength (mol/kgw)  =   1.086e-02
                       Mass of water (kg)  =   1.000e+00
                 Total alkalinity (eq/kg)  =   1.082e-02
                         Temperature (°C)  =  25.00
                  Electrical balance (eq)  =  -1.556e-10
 Percent error, 100*(Cat-|An|)/(Cat+|An|)  =  -0.00
                               Iterations  =  32
                                  Total H  = 1.110341e+02
                                  Total O  = 5.552605e+01

----------------------------Distribution of species----------------------------

                                               Log       Log       Log    mole V
   Species          Molality    Activity  Molality  Activity     Gamma   cm³/mol

   OH-             3.481e-03   3.120e-03    -2.458    -2.506    -0.047     -4.03
   H+              3.561e-12   3.243e-12   -11.448   -11.489    -0.041      0.00
   H2O             5.551e+01   9.998e-01     1.744    -0.000     0.000     18.07
Al            1.803e-03
   Al(OH)4-        1.803e-03   1.622e-03    -2.744    -2.790    -0.046     (0)  
   Al(OH)3         2.784e-09   2.791e-09    -8.555    -8.554     0.001     (0)  
   Al(OH)2+        6.813e-14   6.144e-14   -13.167   -13.212    -0.045     (0)  
   AlOH+2          3.844e-20   2.543e-20   -19.415   -19.595    -0.179    -27.54
   Al+3            1.927e-26   8.303e-27   -25.715   -26.081    -0.366    -41.85
   AlSO4+          1.440e-26   1.296e-26   -25.841   -25.888    -0.046     (0)  
   Al(SO4)2-       2.248e-28   2.021e-28   -27.648   -27.694    -0.046     (0)  
   AlHSO4+2        5.716e-39   3.725e-39   -38.243   -38.429    -0.186     (0)  
Ca            3.606e-03
   Ca+2            3.330e-03   2.201e-03    -2.478    -2.657    -0.180    -17.92
   CaSO4           1.513e-04   1.515e-04    -3.820    -3.820     0.000      7.22
   CaOH+           1.253e-04   1.126e-04    -3.902    -3.948    -0.046     (0)  
   CaHSO4+         4.582e-15   4.117e-15   -14.339   -14.385    -0.046     (0)  
H(0)          2.415e-16
   H2              1.208e-16   1.211e-16   -15.918   -15.917     0.001     14.99
O(0)          0.000e+00
   O2              0.000e+00   0.000e+00   -60.530   -60.529     0.001     30.40
S(-2)         7.173e-33
   HS-             6.826e-33   6.120e-33   -32.166   -32.213    -0.047     20.67
   S-2             3.462e-34   2.279e-34   -33.461   -33.642    -0.182     (0)  
   H2S             1.731e-37   1.735e-37   -36.762   -36.761     0.001     36.27
   (H2S)2          0.000e+00   0.000e+00   -74.801   -74.800     0.001     30.09
S(6)          9.015e-04
   SO4-2           7.502e-04   4.934e-04    -3.125    -3.307    -0.182     14.69
   CaSO4           1.513e-04   1.515e-04    -3.820    -3.820     0.000      7.22
   HSO4-           1.731e-13   1.556e-13   -12.762   -12.808    -0.046     40.34
   CaHSO4+         4.582e-15   4.117e-15   -14.339   -14.385    -0.046     (0)  
   AlSO4+          1.440e-26   1.296e-26   -25.841   -25.888    -0.046     (0)  
   Al(SO4)2-       2.248e-28   2.021e-28   -27.648   -27.694    -0.046     (0)  
   AlHSO4+2        5.716e-39   3.725e-39   -38.243   -38.429    -0.186     (0)  

------------------------------Saturation indices-------------------------------

  Phase               SI** log IAP   log K(298 K,   1 atm)

  AFm_1            -0.00    -14.77  -14.77  Ca2Al(SO4)0.5(OH)6:3H2O
  Al(OH)3(a)       -2.41      8.39   10.80  Al(OH)3
  Anhydrite        -1.65     -5.96   -4.31  CaSO4
  Gibbsite          0.28      8.39    8.11  Al(OH)3
  Gypsum           -1.42     -5.96   -4.55  CaSO4:2H2O
  H2(g)           -12.82    -15.92   -3.10  H2
  H2O(g)           -1.50     -0.00    1.50  H2O
  H2S(g)          -35.77    -43.70   -7.94  H2S
  O2(g)           -57.64    -60.53   -2.89  O2
  Sulfur          -28.88    -23.99    4.88  S

**For a gas, SI = log10(fugacity). Fugacity = pressure * phi / 1 atm.
  For ideal gases, phi = 1.

Reaction step 2.

WARNING: Maximum iterations exceeded, 100

WARNING: Numerical method failed with this set of convergence parameters.

WARNING: Trying reduced tolerance 1e-16 ...

Using solution 1.	Solution after simulation 1.
Using solid solution assemblage 1.	
Using reaction 1.	

Reaction 1.	

	  1.200e-02 moles of the following reaction have been added:

	                 Relative
	Reactant            moles

	NO3                  1.00000
	SO4                 -0.50000

	                 Relative
	Element             moles
	N                    1.00000
	O                    1.00000
	S                   -0.50000

--------------------------------Solid solutions--------------------------------


Solid solution                Component        Moles  Delta moles   Mole fract

nn                                          7.37e-03
                           NO3_OH_AFm_1     7.37e-03     7.37e-03     1.00e+00
                                  AFm_1     1.01e-09    -1.02e-02     1.37e-07

-----------------------------Solution composition------------------------------

	Elements           Molality       Moles

	Al                4.625e-03   4.626e-03
	Ca                9.250e-03   9.252e-03
	N                 8.311e-03   8.313e-03
	S                 4.190e-20   4.191e-20

----------------------------Description of solution----------------------------

                                       pH  =  11.637      Charge balance
                                       pe  =   7.357      Adjusted to redox equilibrium
      Specific Conductance (µS/cm,  25°C)  = 2473
                          Density (g/cm³)  =   0.99839
                               Volume (L)  =   1.00329
                        Viscosity (mPa s)  =   0.89441
                        Activity of water  =   1.000
                 Ionic strength (mol/kgw)  =   2.693e-02
                       Mass of water (kg)  =   1.000e+00
                 Total alkalinity (eq/kg)  =   2.406e-02
                         Temperature (°C)  =  25.00
                  Electrical balance (eq)  =  -1.556e-10
 Percent error, 100*(Cat-|An|)/(Cat+|An|)  =  -0.00
                               Iterations  = 134 (235 overall)
                                  Total H  = 1.110643e+02
                                  Total O  = 5.556910e+01

----------------------------Distribution of species----------------------------

                                               Log       Log       Log    mole V
   Species          Molality    Activity  Molality  Activity     Gamma   cm³/mol

   OH-             5.155e-03   4.384e-03    -2.288    -2.358    -0.070     -3.95
   H+              2.628e-12   2.308e-12   -11.580   -11.637    -0.056      0.00
   H2O             5.551e+01   9.995e-01     1.744    -0.000     0.000     18.07
Al            4.625e-03
   Al(OH)4-        4.625e-03   3.961e-03    -2.335    -2.402    -0.067     (0)  
   Al(OH)3         4.822e-09   4.852e-09    -8.317    -8.314     0.003     (0)  
   Al(OH)2+        8.828e-14   7.603e-14   -13.054   -13.119    -0.065     (0)  
   AlOH+2          4.070e-20   2.240e-20   -19.390   -19.650    -0.259    -27.39
   Al+3            1.674e-26   5.207e-27   -25.776   -26.283    -0.507    -41.59
   AlSO4+          0.000e+00   0.000e+00   -42.495   -42.562    -0.067     (0)  
   AlHSO4+2        0.000e+00   0.000e+00   -54.980   -55.251    -0.271     (0)  
   Al(SO4)2-       0.000e+00   0.000e+00   -60.773   -60.841    -0.067     (0)  
Ca            9.250e-03
   Ca+2            8.841e-03   4.867e-03    -2.053    -2.313    -0.259    -17.76
   CaOH+           4.089e-04   3.498e-04    -3.388    -3.456    -0.068     (0)  
   CaSO4           1.127e-20   1.130e-20   -19.948   -19.947     0.001      7.22
   CaHSO4+         2.555e-31   2.185e-31   -30.593   -30.660    -0.068     (0)  
H(0)          0.000e+00
   H2              0.000e+00   0.000e+00   -41.141   -41.138     0.003     14.99
N(-3)         0.000e+00
   NH3             0.000e+00   0.000e+00   -55.912   -55.909     0.003     24.42
   NH4+            0.000e+00   0.000e+00   -58.228   -58.302    -0.074     18.02
   NH4SO4-         0.000e+00   0.000e+00   -76.665   -76.728    -0.063     34.38
N(0)          7.232e-11
   N2              3.616e-11   3.638e-11   -10.442   -10.439     0.003     29.29
N(3)          3.173e-12
   NO2-            3.173e-12   2.688e-12   -11.499   -11.571    -0.072     25.09
N(5)          8.311e-03
   NO3-            8.311e-03   7.041e-03    -2.080    -2.152    -0.072     29.62
O(0)          1.630e-10
   O2              8.149e-11   8.200e-11   -10.089   -10.086     0.003     30.40
S(-2)         0.000e+00
   HS-             0.000e+00   0.000e+00  -149.648  -149.718    -0.070     20.73
   S-2             0.000e+00   0.000e+00  -150.736  -150.999    -0.264     (0)  
   H2S             0.000e+00   0.000e+00  -154.416  -154.413     0.003     36.27
   (H2S)2          0.000e+00   0.000e+00  -310.108  -310.105     0.003     30.09
S(6)          4.190e-20
   SO4-2           3.063e-20   1.665e-20   -19.514   -19.779    -0.265     14.81
   CaSO4           1.127e-20   1.130e-20   -19.948   -19.947     0.001      7.22
   HSO4-           4.366e-30   3.735e-30   -29.360   -29.428    -0.068     40.40
   CaHSO4+         2.555e-31   2.185e-31   -30.593   -30.660    -0.068     (0)  
   AlSO4+          0.000e+00   0.000e+00   -42.495   -42.562    -0.067     (0)  
   AlHSO4+2        0.000e+00   0.000e+00   -54.980   -55.251    -0.271     (0)  
   Al(SO4)2-       0.000e+00   0.000e+00   -60.773   -60.841    -0.067     (0)  
   NH4SO4-         0.000e+00   0.000e+00   -76.665   -76.728    -0.063     34.38

------------------------------Saturation indices-------------------------------

  Phase               SI** log IAP   log K(298 K,   1 atm)

  AFm_1            -6.86    -21.63  -14.77  Ca2Al(SO4)0.5(OH)6:3H2O
  Al(OH)3(a)       -2.17      8.63   10.80  Al(OH)3
  Anhydrite       -17.78    -22.09   -4.31  CaSO4
  Gibbsite          0.52      8.63    8.11  Al(OH)3
  Gypsum          -17.54    -22.09   -4.55  CaSO4:2H2O
  H2(g)           -38.04    -41.14   -3.10  H2
  H2O(g)           -1.50     -0.00    1.50  H2O
  H2S(g)         -153.42   -161.35   -7.94  H2S
  N2(g)            -7.26    -10.44   -3.18  N2
  NH3(g)          -57.71    -55.91    1.80  NH3
  NO3_OH_AFm_1     -0.00    -14.00  -14.00  Ca2Al(NO3)0.5(OH)0.5(OH)6:3H2O
  O2(g)            -7.19    -10.09   -2.89  O2
  Sulfur         -121.31   -116.42    4.88  S

**For a gas, SI = log10(fugacity). Fugacity = pressure * phi / 1 atm.
  For ideal gases, phi = 1.

------------------
End of simulation.
------------------

------------------------------------
Reading input data for simulation 3.
------------------------------------

	USE solid_solutions 1
	SOLUTION 2
	Cl 25
	 pH 2 charge
	END
-------------------------------------------
Beginning of initial solution calculations.
-------------------------------------------

Initial solution 2.	

-----------------------------Solution composition------------------------------

	Elements           Molality       Moles

	Cl                2.500e-02   2.500e-02

----------------------------Description of solution----------------------------

                                       pH  =   1.660      Charge balance
                                       pe  =   4.000    
      Specific Conductance (µS/cm,  25°C)  = 10099
                          Density (g/cm³)  =   0.99750
                               Volume (L)  =   1.00342
                        Viscosity (mPa s)  =   0.89144
                        Activity of water  =   0.999
                 Ionic strength (mol/kgw)  =   2.484e-02
                       Mass of water (kg)  =   1.000e+00
                 Total alkalinity (eq/kg)  =  -2.500e-02
                         Temperature (°C)  =  25.00
                  Electrical balance (eq)  =   1.241e-13
 Percent error, 100*(Cat-|An|)/(Cat+|An|)  =   0.00
                               Iterations  =   5
                                  Total H  = 1.110374e+02
                                  Total O  = 5.550622e+01

----------------------------Distribution of species----------------------------

                                               Log       Log       Log    mole V
   Species          Molality    Activity  Molality  Activity     Gamma   cm³/mol

   H+              2.484e-02   2.190e-02    -1.605    -1.660    -0.055      0.00
   OH-             5.402e-13   4.619e-13   -12.267   -12.335    -0.068     -3.96
   H2O             5.551e+01   9.992e-01     1.744    -0.000     0.000     18.07
Cl            2.500e-02
   Cl-             2.484e-02   2.128e-02    -1.605    -1.672    -0.067     18.19
   HCl             1.567e-04   1.605e-04    -3.805    -3.794     0.011     20.36
H(0)          6.748e-15
   H2              3.374e-15   3.394e-15   -14.472   -14.469     0.003     14.99
O(0)          0.000e+00
   O2              0.000e+00   0.000e+00   -63.427   -63.425     0.002     30.40

------------------------------Saturation indices-------------------------------

  Phase               SI** log IAP   log K(298 K,   1 atm)

  H2(g)           -11.37    -14.47   -3.10  H2
  H2O(g)           -1.50     -0.00    1.50  H2O
  O2(g)           -60.53    -63.42   -2.89  O2

**For a gas, SI = log10(fugacity). Fugacity = pressure * phi / 1 atm.
  For ideal gases, phi = 1.

-----------------------------------------
Beginning of batch-reaction calculations.
-----------------------------------------

Reaction step 1.

WARNING: Maximum iterations exceeded, 100

WARNING: Numerical method failed with this set of convergence parameters.

WARNING: Trying reduced tolerance 1e-16 ...

Using solution 2.	
Using solid solution assemblage 1.	Solid solution assemblage after simulation 2

--------------------------------Solid solutions--------------------------------


Solid solution                Component        Moles  Delta moles   Mole fract

nn                                          0.00e+00
                           NO3_OH_AFm_1     0.00e+00    -7.37e-03     0.00e+00
                                  AFm_1     0.00e+00    -1.01e-09     0.00e+00

-----------------------------Solution composition------------------------------

	Elements           Molality       Moles

	Al                7.368e-03   7.374e-03
	Ca                1.474e-02   1.475e-02
	Cl                2.498e-02   2.500e-02
	N                 3.684e-03   3.687e-03
	S                 5.038e-10   5.042e-10

----------------------------Description of solution----------------------------

                                       pH  =   6.370      Charge balance
                                       pe  =  13.327      Adjusted to redox equilibrium
      Specific Conductance (µS/cm,  25°C)  = 3381
                          Density (g/cm³)  =   0.99903
                               Volume (L)  =   1.00412
                        Viscosity (mPa s)  =   0.89627
                        Activity of water  =   0.999
                 Ionic strength (mol/kgw)  =   4.757e-02
                       Mass of water (kg)  =   1.001e+00
                 Total alkalinity (eq/kg)  =   2.291e-02
                         Temperature (°C)  =  25.00
                  Electrical balance (eq)  =   1.240e-13
 Percent error, 100*(Cat-|An|)/(Cat+|An|)  =   0.00
                               Iterations  = 111 (212 overall)
                                  Total H  = 1.111296e+02
                                  Total O  = 5.558733e+01

----------------------------Distribution of species----------------------------

                                               Log       Log       Log    mole V
   Species          Molality    Activity  Molality  Activity     Gamma   cm³/mol

   H+              4.990e-07   4.270e-07    -6.302    -6.370    -0.068      0.00
   OH-             2.906e-08   2.368e-08    -7.537    -7.626    -0.089     -3.88
   H2O             5.551e+01   9.991e-01     1.744    -0.000     0.000     18.07
Al            7.368e-03
   Al(OH)4-        3.870e-03   3.189e-03    -2.412    -2.496    -0.084     (0)  
   Al(OH)2+        2.523e-03   2.098e-03    -2.598    -2.678    -0.080     (0)  
   Al(OH)3         7.152e-04   7.231e-04    -3.146    -3.141     0.005     (0)  
   AlOH+2          2.394e-04   1.144e-04    -3.621    -3.942    -0.321    -27.28
   Al+3            1.999e-05   4.922e-06    -4.699    -5.308    -0.609    -41.39
   AlSO4+          3.037e-12   2.502e-12   -11.518   -11.602    -0.084     (0)  
   AlHSO4+2        2.054e-19   9.474e-20   -18.687   -19.023    -0.336     (0)  
   Al(SO4)2-       1.544e-20   1.272e-20   -19.811   -19.896    -0.084     (0)  
Ca            1.474e-02
   Ca+2            1.474e-02   7.057e-03    -1.832    -2.151    -0.320    -17.63
   CaOH+           3.325e-09   2.740e-09    -8.478    -8.562    -0.084     (0)  
   CaSO4           1.575e-10   1.582e-10    -9.803    -9.801     0.002      7.22
   CaHSO4+         6.871e-16   5.662e-16   -15.163   -15.247    -0.084     (0)  
Cl            2.498e-02
   Cl-             2.498e-02   2.042e-02    -1.602    -1.690    -0.087     18.25
   HCl             2.867e-09   3.004e-09    -8.543    -8.522     0.020     20.36
H(0)          0.000e+00
   H2              0.000e+00   0.000e+00   -42.548   -42.543     0.005     14.99
N(-3)         0.000e+00
   NH4+            0.000e+00   0.000e+00   -53.666   -53.760    -0.094     18.07
   NH3             0.000e+00   0.000e+00   -56.639   -56.635     0.005     24.42
   NH4SO4-         0.000e+00   0.000e+00   -62.123   -62.201    -0.078     34.82
N(0)          4.187e-08
   N2              2.093e-08   2.116e-08    -7.679    -7.674     0.005     29.29
N(3)          5.537e-14
   NO2-            5.537e-14   4.484e-14   -13.257   -13.348    -0.092     25.14
N(5)          3.684e-03
   NO3-            3.684e-03   2.984e-03    -2.434    -2.525    -0.092     29.67
O(0)          1.047e-07
   O2              5.233e-08   5.291e-08    -7.281    -7.276     0.005     30.40
S(-2)         0.000e+00
   H2S             0.000e+00   0.000e+00  -139.518  -139.513     0.005     36.27
   HS-             0.000e+00   0.000e+00  -139.997  -140.086    -0.089     20.78
   S-2             0.000e+00   0.000e+00  -146.306  -146.634    -0.328     (0)  
   (H2S)2          0.000e+00   0.000e+00  -280.310  -280.305     0.005     30.09
S(6)          5.038e-10
   SO4-2           3.433e-10   1.607e-10    -9.464    -9.794    -0.329     14.93
   CaSO4           1.575e-10   1.582e-10    -9.803    -9.801     0.002      7.22
   AlSO4+          3.037e-12   2.502e-12   -11.518   -11.602    -0.084     (0)  
   HSO4-           8.099e-15   6.674e-15   -14.092   -14.176    -0.084     40.45
   CaHSO4+         6.871e-16   5.662e-16   -15.163   -15.247    -0.084     (0)  
   AlHSO4+2        2.054e-19   9.474e-20   -18.687   -19.023    -0.336     (0)  
   Al(SO4)2-       1.544e-20   1.272e-20   -19.811   -19.896    -0.084     (0)  
   NH4SO4-         0.000e+00   0.000e+00   -62.123   -62.201    -0.078     34.82

------------------------------Saturation indices-------------------------------

  Phase               SI** log IAP   log K(298 K,   1 atm)

  AFm_1           -12.18    -26.95  -14.77  Ca2Al(SO4)0.5(OH)6:3H2O
  Al(OH)3(a)        3.00     13.80   10.80  Al(OH)3
  Anhydrite        -7.63    -11.95   -4.31  CaSO4
  Gibbsite          5.69     13.80    8.11  Al(OH)3
  Gypsum           -7.40    -11.95   -4.55  CaSO4:2H2O
  H2(g)           -39.44    -42.54   -3.10  H2
  H2O(g)           -1.50     -0.00    1.50  H2O
  H2S(g)         -138.52   -146.46   -7.94  H2S
  N2(g)            -4.50     -7.67   -3.18  N2
  NH3(g)          -58.43    -56.63    1.80  NH3
  NO3_OH_AFm_1    -13.13    -27.13  -14.00  Ca2Al(NO3)0.5(OH)0.5(OH)6:3H2O
  O2(g)            -4.38     -7.28   -2.89  O2
  Sulfur         -105.00   -100.12    4.88  S

**For a gas, SI = log10(fugacity). Fugacity = pressure * phi / 1 atm.
  For ideal gases, phi = 1.

------------------
End of simulation.
------------------

------------------------------------
Reading input data for simulation 4.
------------------------------------

	USE solution 1
	 REACTION 1
	 H2O 0
	 1
	 SELECTED_OUTPUT 100
	 USER_PUNCH 100
	 10 put(1, 10200)
	 END
-----------------------------------------
Beginning of batch-reaction calculations.
-----------------------------------------

Reaction step 1.

Using solution 1.	Solution after simulation 1.
Using reaction 1.	

Reaction 1.	

	  1.000e+00 moles of the following reaction have been added:

	                 Relative
	Reactant            moles

	H2O                  0.00000

	                 Relative
	Element             moles
	H                    0.00000
	O                    0.00000

-----------------------------Solution composition------------------------------

	Elements           Molality       Moles

	Al                1.199e-02   1.200e-02
	Ca                2.398e-02   2.400e-02
	S                 5.996e-03   6.000e-03

----------------------------Description of solution----------------------------

                                       pH  =  12.220      Charge balance
                                       pe  =  -6.268      Adjusted to redox equilibrium
      Specific Conductance (µS/cm,  25°C)  = 6024
                          Density (g/cm³)  =   1.00046
                               Volume (L)  =   1.00327
                        Viscosity (mPa s)  =   0.90348
                        Activity of water  =   0.999
                 Ionic strength (mol/kgw)  =   6.418e-02
                       Mass of water (kg)  =   1.001e+00
                 Total alkalinity (eq/kg)  =   7.195e-02
                         Temperature (°C)  =  25.00
                  Electrical balance (eq)  =  -1.155e-10
 Percent error, 100*(Cat-|An|)/(Cat+|An|)  =  -0.00
                               Iterations  =   0
                                  Total H  = 1.111564e+02
                                  Total O  = 5.563822e+01

----------------------------Distribution of species----------------------------

                                               Log       Log       Log    mole V
   Species          Molality    Activity  Molality  Activity     Gamma   cm³/mol

   OH-             2.111e-02   1.676e-02    -1.676    -1.776    -0.100     -3.83
   H+              7.150e-13   6.032e-13   -12.146   -12.220    -0.074      0.00
   H2O             5.551e+01   9.990e-01     1.744    -0.000     0.000     18.07
Al            1.199e-02
   Al(OH)4-        1.199e-02   9.658e-03    -1.921    -2.015    -0.094     (0)  
   Al(OH)3         3.049e-09   3.094e-09    -8.516    -8.509     0.006     (0)  
   Al(OH)2+        1.557e-14   1.268e-14   -13.808   -13.897    -0.089     (0)  
   AlOH+2          2.220e-21   9.768e-22   -20.654   -21.010    -0.357    -27.21
   AlSO4+          3.992e-28   3.215e-28   -27.399   -27.493    -0.094     (0)  
   Al+3            2.745e-28   5.938e-29   -27.562   -28.226    -0.665    -41.28
   Al(SO4)2-       2.162e-29   1.741e-29   -28.665   -28.759    -0.094     (0)  
   AlHSO4+2        0.000e+00   0.000e+00   -40.391   -40.765    -0.373     (0)  
Ca            2.398e-02
   Ca+2            1.910e-02   8.447e-03    -1.719    -2.073    -0.354    -17.56
   CaOH+           2.878e-03   2.322e-03    -2.541    -2.634    -0.093     (0)  
   CaSO4           2.004e-03   2.018e-03    -2.698    -2.695     0.003      7.22
   CaHSO4+         1.264e-14   1.020e-14   -13.898   -13.991    -0.093     (0)  
H(0)          1.743e-15
   H2              8.713e-16   8.850e-16   -15.060   -15.053     0.007     14.99
O(0)          0.000e+00
   O2              0.000e+00   0.000e+00   -62.264   -62.257     0.006     30.40
S(-2)         1.949e-29
   HS-             1.424e-29   1.131e-29   -28.846   -28.946    -0.100     20.81
   S-2             5.249e-30   2.265e-30   -29.280   -29.645    -0.365     (0)  
   H2S             5.879e-35   5.966e-35   -34.231   -34.224     0.006     36.27
   (H2S)2          0.000e+00   0.000e+00   -69.733   -69.727     0.006     30.09
S(6)          5.996e-03
   SO4-2           3.992e-03   1.712e-03    -2.399    -2.766    -0.368     15.00
   CaSO4           2.004e-03   2.018e-03    -2.698    -2.695     0.003      7.22
   HSO4-           1.245e-13   1.004e-13   -12.905   -12.998    -0.093     40.48
   CaHSO4+         1.264e-14   1.020e-14   -13.898   -13.991    -0.093     (0)  
   AlSO4+          3.992e-28   3.215e-28   -27.399   -27.493    -0.094     (0)  
   Al(SO4)2-       2.162e-29   1.741e-29   -28.665   -28.759    -0.094     (0)  
   AlHSO4+2        0.000e+00   0.000e+00   -40.391   -40.765    -0.373     (0)  

------------------------------Saturation indices-------------------------------

  Phase               SI** log IAP   log K(298 K,   1 atm)

  AFm_1             3.67    -11.10  -14.77  Ca2Al(SO4)0.5(OH)6:3H2O
  Al(OH)3(a)       -2.37      8.43   10.80  Al(OH)3
  Anhydrite        -0.53     -4.84   -4.31  CaSO4
  Gibbsite          0.32      8.43    8.11  Al(OH)3
  Gypsum           -0.29     -4.84   -4.55  CaSO4:2H2O
  H2(g)           -11.95    -15.05   -3.10  H2
  H2O(g)           -1.50     -0.00    1.50  H2O
  H2S(g)          -33.23    -41.17   -7.94  H2S
  O2(g)           -59.36    -62.26   -2.89  O2
  Sulfur          -27.20    -22.32    4.88  S

**For a gas, SI = log10(fugacity). Fugacity = pressure * phi / 1 atm.
  For ideal gases, phi = 1.

------------------
End of simulation.
------------------

------------------------------------
Reading input data for simulation 5.
------------------------------------

