WARNING: Database file from DATABASE keyword is used; command line argument ignored.
   Input file: ss_r
  Output file: ss_r.out
Database file: ../database/phreeqc.dat

------------------
Reading data base.
------------------

	SOLUTION_MASTER_SPECIES
	SOLUTION_SPECIES
	PHASES
	GAS_BINARY_PARAMETERS
	EXCHANGE_MASTER_SPECIES
	EXCHANGE_SPECIES
	SURFACE_MASTER_SPECIES
	SURFACE_SPECIES
	MEAN_GAMMAS
	RATES
	END
------------------------------------
Reading input data for simulation 1.
------------------------------------

	DATABASE ../database/phreeqc.dat
	SELECTED_OUTPUT 101
	    file                 ss_r_101.sel
	USER_PUNCH 101
	    headings Mu SC
	    start
	10 PUNCH STR_F$(MU, 20, 12)
	20 PUNCH STR_F$(SC, 20, 10)
	    end
	KNOBS
	 step_size 2
	 pe_step_size 2
	 iterations 300
	 diagonal_scale true
	RATES
	 CO2_escape
	 10 P_CO2 = SI("CO2(g)")
	 12 if P_CO2 < -3.4999 then goto 30
	 20 rate = (P_CO2 + 3.5)/3600/5e3
	 30 save rate * time
	SOLUTION 1-11
	 pH 7.0 CO2(g) -3.5
	 pe 14 O2(g) -1.0
	 Ca 1.5 Calcite
	 Zn 1.5e-9
	 C(4) 1.0 charge
	SOLUTION 0
	pH 7.0 Calcite 0.0
	pe 14 O2(g) -1.0
	Ca 1.5
	Zn 1.5e-3
	C(4) 1.0 charge
	END
-------------------------------------------
Beginning of initial solution calculations.
-------------------------------------------

Initial solution 0.	

-----------------------------Solution composition------------------------------

	Elements           Molality       Moles

	C(4)              3.249e-03   3.249e-03  Charge balance
	Ca                1.500e-03   1.500e-03
	Zn                1.500e-06   1.500e-06

----------------------------Description of solution----------------------------

                                       pH  =   7.385      Equilibrium with Calcite
                                       pe  =  13.157      Equilibrium with O2(g)
      Specific Conductance (µS/cm,  25°C)  = 285
                          Density (g/cm³)  =   0.99724
                               Volume (L)  =   1.00302
                        Viscosity (mPa s)  =   0.89185
                        Activity of water  =   1.000
                 Ionic strength (mol/kgw)  =   4.489e-03
                       Mass of water (kg)  =   1.000e+00
                 Total alkalinity (eq/kg)  =   3.003e-03
                       Total CO2 (mol/kg)  =   3.249e-03
                         Temperature (°C)  =  25.00
                  Electrical balance (eq)  =   2.024e-15
 Percent error, 100*(Cat-|An|)/(Cat+|An|)  =   0.00
                               Iterations  =   6
                                  Total H  = 1.110154e+02
                                  Total O  = 5.551596e+01

----------------------------Distribution of species----------------------------

                                               Log       Log       Log    mole V
   Species          Molality    Activity  Molality  Activity     Gamma   cm³/mol

   OH-             2.642e-07   2.456e-07    -6.578    -6.610    -0.032     -4.07
   H+              4.400e-08   4.120e-08    -7.357    -7.385    -0.029      0.00
   H2O             5.551e+01   9.999e-01     1.744    -0.000     0.000     18.07
C(4)          3.249e-03
   HCO3-           2.981e-03   2.779e-03    -2.526    -2.556    -0.031     24.63
   CO2             2.573e-04   2.575e-04    -3.590    -3.589     0.000     34.79
   CaCO3           5.983e-06   5.989e-06    -5.223    -5.223     0.000    -14.60
   CO3-2           4.191e-06   3.163e-06    -5.378    -5.500    -0.122     -4.51
   ZnCO3           3.896e-07   3.900e-07    -6.409    -6.409     0.000     (0)  
   ZnHCO3+         2.324e-07   2.162e-07    -6.634    -6.665    -0.031     (0)  
   Zn(CO3)2-2      3.520e-08   2.637e-08    -7.453    -7.579    -0.125     (0)  
   (CO2)2          1.077e-09   1.078e-09    -8.968    -8.968     0.000     68.75
   CaHCO3+         2.944e-10   2.746e-10    -9.531    -9.561    -0.030      9.70
Ca            1.500e-03
   Ca+2            1.494e-03   1.127e-03    -2.826    -2.948    -0.122    -18.03
   CaCO3           5.983e-06   5.989e-06    -5.223    -5.223     0.000    -14.60
   CaOH+           4.879e-09   4.539e-09    -8.312    -8.343    -0.031     (0)  
   CaHCO3+         2.944e-10   2.746e-10    -9.531    -9.561    -0.030      9.70
H(0)          0.000e+00
   H2              0.000e+00   0.000e+00   -44.236   -44.235     0.000     14.99
O(0)          2.560e-04
   O2              1.280e-04   1.281e-04    -3.893    -3.892     0.000     30.40
Zn            1.500e-06
   Zn+2            8.206e-07   6.180e-07    -6.086    -6.209    -0.123    -25.25
   ZnCO3           3.896e-07   3.900e-07    -6.409    -6.409     0.000     (0)  
   ZnHCO3+         2.324e-07   2.162e-07    -6.634    -6.665    -0.031     (0)  
   Zn(CO3)2-2      3.520e-08   2.637e-08    -7.453    -7.579    -0.125     (0)  
   ZnOH+           1.767e-08   1.644e-08    -7.753    -7.784    -0.031     (0)  
   Zn(OH)2         4.577e-09   4.582e-09    -8.339    -8.339     0.000     (0)  
   Zn(OH)3-        3.779e-13   3.516e-13   -12.423   -12.454    -0.031     (0)  
   Zn(OH)4-2       1.805e-18   1.352e-18   -17.744   -17.869    -0.125     (0)  

------------------------------Saturation indices-------------------------------

  Phase               SI** log IAP   log K(298 K,   1 atm)

  Aragonite        -0.11     -8.45   -8.34  CaCO3
  Calcite           0.00     -8.45   -8.45  CaCO3
  CO2(g)           -2.12     -3.59   -1.47  CO2
  H2(g)           -41.14    -44.24   -3.10  H2
  H2O(g)           -1.50     -0.00    1.50  H2O
  O2(g)            -1.00     -3.89   -2.89  O2	 Pressure   0.1 atm, phi 1.000
  Smithsonite      -1.71    -11.71  -10.00  ZnCO3
  Zn(OH)2(e)       -2.94      8.56   11.50  Zn(OH)2

**For a gas, SI = log10(fugacity). Fugacity = pressure * phi / 1 atm.
  For ideal gases, phi = 1.

Initial solution 1.	

-----------------------------Solution composition------------------------------

	Elements           Molality       Moles

	C(4)              9.989e-04   9.989e-04  Charge balance
	Ca                5.032e-04   5.032e-04  Equilibrium with Calcite
	Zn                1.500e-12   1.500e-12

----------------------------Description of solution----------------------------

                                       pH  =   8.289      Equilibrium with CO2(g)
                                       pe  =  12.253      Equilibrium with O2(g)
      Specific Conductance (µS/cm,  25°C)  = 99
                          Density (g/cm³)  =   0.99711
                               Volume (L)  =   1.00298
                        Viscosity (mPa s)  =   0.89086
                        Activity of water  =   1.000
                 Ionic strength (mol/kgw)  =   1.502e-03
                       Mass of water (kg)  =   1.000e+00
                 Total alkalinity (eq/kg)  =   1.006e-03
                       Total CO2 (mol/kg)  =   9.989e-04
                         Temperature (°C)  =  25.00
                  Electrical balance (eq)  =   3.474e-18
 Percent error, 100*(Cat-|An|)/(Cat+|An|)  =   0.00
                               Iterations  =  13 (19 overall)
                                  Total H  = 1.110134e+02
                                  Total O  = 5.550946e+01

----------------------------Distribution of species----------------------------

                                               Log       Log       Log    mole V
   Species          Molality    Activity  Molality  Activity     Gamma   cm³/mol

   OH-             2.058e-06   1.970e-06    -5.687    -5.705    -0.019     -4.10
   H+              5.351e-09   5.137e-09    -8.272    -8.289    -0.018      0.00
   H2O             5.551e+01   1.000e+00     1.744    -0.000     0.000     18.07
C(4)          9.989e-04
   HCO3-           9.721e-04   9.316e-04    -3.012    -3.031    -0.018     24.57
   CO2             1.076e-05   1.076e-05    -4.968    -4.968     0.000     34.79
   CO3-2           1.008e-05   8.505e-06    -4.996    -5.070    -0.074     -4.64
   CaCO3           5.987e-06   5.989e-06    -5.223    -5.223     0.000    -14.60
   CaHCO3+         3.572e-11   3.424e-11   -10.447   -10.465    -0.018      9.67
   (CO2)2          1.882e-12   1.882e-12   -11.725   -11.725     0.000     68.75
   ZnCO3           6.248e-13   6.250e-13   -12.204   -12.204     0.000     (0)  
   Zn(CO3)2-2      1.351e-13   1.136e-13   -12.869   -12.944    -0.075     (0)  
   ZnHCO3+         4.511e-14   4.320e-14   -13.346   -13.365    -0.019     (0)  
Ca            5.032e-04
   Ca+2            4.972e-04   4.192e-04    -3.304    -3.378    -0.074    -18.12
   CaCO3           5.987e-06   5.989e-06    -5.223    -5.223     0.000    -14.60
   CaOH+           1.414e-08   1.354e-08    -7.850    -7.868    -0.019     (0)  
   CaHCO3+         3.572e-11   3.424e-11   -10.447   -10.465    -0.018      9.67
H(0)          0.000e+00
   H2              0.000e+00   0.000e+00   -44.235   -44.235     0.000     14.99
O(0)          2.561e-04
   O2              1.281e-04   1.281e-04    -3.893    -3.892     0.000     30.40
Zn            1.500e-12
   ZnCO3           6.248e-13   6.250e-13   -12.204   -12.204     0.000     (0)  
   Zn+2            4.371e-13   3.683e-13   -12.359   -12.434    -0.074    -25.34
   Zn(OH)2         1.756e-13   1.757e-13   -12.755   -12.755     0.000     (0)  
   Zn(CO3)2-2      1.351e-13   1.136e-13   -12.869   -12.944    -0.075     (0)  
   ZnOH+           8.209e-14   7.862e-14   -13.086   -13.104    -0.019     (0)  
   ZnHCO3+         4.511e-14   4.320e-14   -13.346   -13.365    -0.019     (0)  
   Zn(OH)3-        1.129e-16   1.082e-16   -15.947   -15.966    -0.019     (0)  
   Zn(OH)4-2       3.967e-21   3.337e-21   -20.402   -20.477    -0.075     (0)  

------------------------------Saturation indices-------------------------------

  Phase               SI** log IAP   log K(298 K,   1 atm)

  Aragonite        -0.11     -8.45   -8.34  CaCO3
  Calcite           0.00     -8.45   -8.45  CaCO3
  CO2(g)           -3.50     -4.97   -1.47  CO2	 Pressure   0.0 atm, phi 1.000
  H2(g)           -41.14    -44.24   -3.10  H2
  H2O(g)           -1.50     -0.00    1.50  H2O
  O2(g)            -1.00     -3.89   -2.89  O2	 Pressure   0.1 atm, phi 1.000
  Smithsonite      -7.50    -17.50  -10.00  ZnCO3
  Zn(OH)2(e)       -7.36      4.14   11.50  Zn(OH)2

**For a gas, SI = log10(fugacity). Fugacity = pressure * phi / 1 atm.
  For ideal gases, phi = 1.

------------------
End of simulation.
------------------

------------------------------------
Reading input data for simulation 2.
------------------------------------

	KINETICS 1-10
	 CO2_escape
	 formula CO2 -1 
	SOLID_SOLUTION 1-10
	 CaZnCO3
	 comp1 Calcite 0
	 comp2 Smithsonite 0
	 gugg_nondimensional 4
	EQUILIBRIUM_PHASES 1-10
	 Halite -19 #4e-8
	END
-------------------------------------
Description of Solid Solution CaZnCO3
-------------------------------------

	                              Temperature: 298.15 kelvin
	                       A0 (dimensionless): 4
	                       A1 (dimensionless): 0
	                              A0 (kJ/mol): 9.91611
	                              A1 (kJ/mol): 0

	    Critical mole-fraction of component 2: 0.5
	                     Critical temperature: 596.3 kelvin

(The critical temperature calculation assumes that the Guggenheim model
defined at 298.15 kelvin is valid at the critical temperature.)


	 Spinodal-gap mole fractions, component 2: 0.146447	0.853553
	   Miscibility-gap fractions, component 2: 0.021248	0.978752

			Eutectic Point Calculations

	     Aqueous activity ratio (comp2/comp1): 0.02805
	 Log aqueous activity ratio (comp2/comp1): -1.55207
	 Aqueous activity fraction of component 2: 0.0272847
	                    Log IAP (component 2): -10.0085
	                    Log IAP (component 1): -8.45648
	                               Log Sum Pi: -8.44446

Local minimum in the solidus curve corresponding to a maximum
in the minimum stoichiometric saturation curve.

	       Solid mole fraction of component 2: 0.0532794
	                    Log IAP (component 2): -9.71644
	                    Log IAP (component 1): -8.46678
	                               Log Sum Pi: -8.443
------------------
End of simulation.
------------------

------------------------------------
Reading input data for simulation 3.
------------------------------------

	SELECTED_OUTPUT
	TRANSPORT
	 cells 10
	 shifts 10
	 timest 3600
	 diffc 0
	 punch_frequency 5
	USER_GRAPH
WARNING: No cell-lengths were read; length = 1 m assumed.
WARNING: No dispersivities were read; disp = 0 assumed.
	 -plot x
	 -initial_solutions false
	 -head x Ca Zn SI_cc
	 10 graph_x dist
	 20 graph_y tot("Ca")*1e3, tot("Zn")*1e6 #, SI("Calcite")
	END
------------------------------------
Beginning of transport calculations.
------------------------------------

-------------------------------
Equilibrating initial solutions
-------------------------------

Using solution 0.	

-----------------------------Solution composition------------------------------

	Elements           Molality       Moles

	C                 3.249e-03   3.249e-03
	Ca                1.500e-03   1.500e-03
	Zn                1.500e-06   1.500e-06

----------------------------Description of solution----------------------------

                                       pH  =   7.385      Charge balance
                                       pe  =  13.157      Adjusted to redox equilibrium
      Specific Conductance (µS/cm,  25°C)  = 285
                          Density (g/cm³)  =   0.99724
                               Volume (L)  =   1.00302
                        Viscosity (mPa s)  =   0.89185
                        Activity of water  =   1.000
                 Ionic strength (mol/kgw)  =   4.489e-03
                       Mass of water (kg)  =   1.000e+00
                 Total alkalinity (eq/kg)  =   3.003e-03
                       Total CO2 (mol/kg)  =   3.249e-03
                         Temperature (°C)  =  25.00
                  Electrical balance (eq)  =   2.024e-15
 Percent error, 100*(Cat-|An|)/(Cat+|An|)  =   0.00
                               Iterations  =   0
                                  Total H  = 1.110154e+02
                                  Total O  = 5.551596e+01

----------------------------Distribution of species----------------------------

                                               Log       Log       Log    mole V
   Species          Molality    Activity  Molality  Activity     Gamma   cm³/mol

   OH-             2.642e-07   2.456e-07    -6.578    -6.610    -0.032     -4.07
   H+              4.400e-08   4.120e-08    -7.357    -7.385    -0.029      0.00
   H2O             5.551e+01   9.999e-01     1.744    -0.000     0.000     18.07
C(-4)         0.000e+00
   CH4             0.000e+00   0.000e+00  -143.540  -143.539     0.000     35.46
C(4)          3.249e-03
   HCO3-           2.981e-03   2.779e-03    -2.526    -2.556    -0.031     24.63
   CO2             2.573e-04   2.575e-04    -3.590    -3.589     0.000     34.79
   CaCO3           5.983e-06   5.989e-06    -5.223    -5.223     0.000    -14.60
   CO3-2           4.191e-06   3.163e-06    -5.378    -5.500    -0.122     -4.51
   ZnCO3           3.896e-07   3.900e-07    -6.409    -6.409     0.000     (0)  
   ZnHCO3+         2.324e-07   2.162e-07    -6.634    -6.665    -0.031     (0)  
   Zn(CO3)2-2      3.520e-08   2.637e-08    -7.453    -7.579    -0.125     (0)  
   (CO2)2          1.077e-09   1.078e-09    -8.968    -8.968     0.000     68.75
   CaHCO3+         2.944e-10   2.746e-10    -9.531    -9.561    -0.030      9.70
Ca            1.500e-03
   Ca+2            1.494e-03   1.127e-03    -2.826    -2.948    -0.122    -18.03
   CaCO3           5.983e-06   5.989e-06    -5.223    -5.223     0.000    -14.60
   CaOH+           4.879e-09   4.539e-09    -8.312    -8.343    -0.031     (0)  
   CaHCO3+         2.944e-10   2.746e-10    -9.531    -9.561    -0.030      9.70
H(0)          0.000e+00
   H2              0.000e+00   0.000e+00   -44.236   -44.235     0.000     14.99
O(0)          2.560e-04
   O2              1.280e-04   1.281e-04    -3.893    -3.892     0.000     30.40
Zn            1.500e-06
   Zn+2            8.206e-07   6.180e-07    -6.086    -6.209    -0.123    -25.25
   ZnCO3           3.896e-07   3.900e-07    -6.409    -6.409     0.000     (0)  
   ZnHCO3+         2.324e-07   2.162e-07    -6.634    -6.665    -0.031     (0)  
   Zn(CO3)2-2      3.520e-08   2.637e-08    -7.453    -7.579    -0.125     (0)  
   ZnOH+           1.767e-08   1.644e-08    -7.753    -7.784    -0.031     (0)  
   Zn(OH)2         4.577e-09   4.582e-09    -8.339    -8.339     0.000     (0)  
   Zn(OH)3-        3.779e-13   3.516e-13   -12.423   -12.454    -0.031     (0)  
   Zn(OH)4-2       1.805e-18   1.352e-18   -17.744   -17.869    -0.125     (0)  

------------------------------Saturation indices-------------------------------

  Phase               SI** log IAP   log K(298 K,   1 atm)

  Aragonite        -0.11     -8.45   -8.34  CaCO3
  Calcite          -0.00     -8.45   -8.45  CaCO3
  CH4(g)         -140.74   -143.54   -2.80  CH4
  CO2(g)           -2.12     -3.59   -1.47  CO2
  H2(g)           -41.14    -44.24   -3.10  H2
  H2O(g)           -1.50     -0.00    1.50  H2O
  O2(g)            -1.00     -3.89   -2.89  O2
  Smithsonite      -1.71    -11.71  -10.00  ZnCO3
  Zn(OH)2(e)       -2.94      8.56   11.50  Zn(OH)2

**For a gas, SI = log10(fugacity). Fugacity = pressure * phi / 1 atm.
  For ideal gases, phi = 1.

Using solution 1.	
Using pure phase assemblage 1.	
Using solid solution assemblage 1.	
Using kinetics 1.	

Kinetics 1.	

	Time:      0 seconds
	Time step: 3600 seconds

	Rate name       Delta Moles Total Moles   Reactant        Coefficient

	CO2_escape        0.000e+00   1.000e+00   CO2                      -1

-------------------------------Phase assemblage--------------------------------

                                                      Moles in assemblage
Phase               SI  log IAP  log K(T, P)   Initial       Final       Delta

Halite          -19.00   -17.43      1.57    1.000e+01   1.000e+01  -2.013e-09

--------------------------------Solid solutions--------------------------------


Solid solution                Component        Moles  Delta moles   Mole fract

CaZnCO3                                     0.00e+00
                                Calcite     0.00e+00     3.00e-27     0.00e+00
                            Smithsonite     0.00e+00     1.00e-27     0.00e+00

-----------------------------Solution composition------------------------------

	Elements           Molality       Moles

	C                 9.989e-04   9.989e-04
	Ca                5.032e-04   5.032e-04
	Cl                2.013e-09   2.013e-09
	Na                2.013e-09   2.013e-09
	Zn                1.500e-12   1.500e-12

----------------------------Description of solution----------------------------

                                       pH  =   8.289      Charge balance
                                       pe  =  12.253      Adjusted to redox equilibrium
      Specific Conductance (µS/cm,  25°C)  = 99
                          Density (g/cm³)  =   0.99711
                               Volume (L)  =   1.00298
                        Viscosity (mPa s)  =   0.89086
                        Activity of water  =   1.000
                 Ionic strength (mol/kgw)  =   1.502e-03
                       Mass of water (kg)  =   1.000e+00
                 Total alkalinity (eq/kg)  =   1.006e-03
                       Total CO2 (mol/kg)  =   9.989e-04
                         Temperature (°C)  =  25.00
                  Electrical balance (eq)  =   5.837e-18
 Percent error, 100*(Cat-|An|)/(Cat+|An|)  =   0.00
                               Iterations  =   7
                                  Total H  = 1.110134e+02
                                  Total O  = 5.550946e+01

----------------------------Distribution of species----------------------------

                                               Log       Log       Log    mole V
   Species          Molality    Activity  Molality  Activity     Gamma   cm³/mol

   OH-             2.058e-06   1.970e-06    -5.687    -5.705    -0.019     -4.10
   H+              5.351e-09   5.137e-09    -8.272    -8.289    -0.018      0.00
   H2O             5.551e+01   1.000e+00     1.744    -0.000     0.000     18.07
C(-4)         0.000e+00
   CH4             0.000e+00   0.000e+00  -144.918  -144.918     0.000     35.46
C(4)          9.989e-04
   HCO3-           9.721e-04   9.316e-04    -3.012    -3.031    -0.018     24.57
   CO2             1.076e-05   1.076e-05    -4.968    -4.968     0.000     34.79
   CO3-2           1.008e-05   8.505e-06    -4.996    -5.070    -0.074     -4.64
   CaCO3           5.987e-06   5.989e-06    -5.223    -5.223     0.000    -14.60
   CaHCO3+         3.572e-11   3.424e-11   -10.447   -10.465    -0.018      9.67
   (CO2)2          1.882e-12   1.882e-12   -11.725   -11.725     0.000     68.75
   NaHCO3          8.871e-13   8.876e-13   -12.052   -12.052     0.000     17.66
   ZnCO3           6.248e-13   6.250e-13   -12.204   -12.204     0.000     (0)  
   Zn(CO3)2-2      1.351e-13   1.136e-13   -12.869   -12.944    -0.075     (0)  
   ZnHCO3+         4.511e-14   4.320e-14   -13.346   -13.365    -0.019     (0)  
Ca            5.032e-04
   Ca+2            4.972e-04   4.192e-04    -3.304    -3.378    -0.074    -18.12
   CaCO3           5.987e-06   5.989e-06    -5.223    -5.223     0.000    -14.60
   CaOH+           1.414e-08   1.354e-08    -7.850    -7.868    -0.019     (0)  
   CaHCO3+         3.572e-11   3.424e-11   -10.447   -10.465    -0.018      9.67
Cl            2.013e-09
   Cl-             2.013e-09   1.928e-09    -8.696    -8.715    -0.019     18.08
   HCl             3.406e-18   3.411e-18   -17.468   -17.467     0.001     20.36
   ZnOHCl          4.575e-21   4.576e-21   -20.340   -20.339     0.000     (0)  
   ZnCl+           1.996e-21   1.911e-21   -20.700   -20.719    -0.019    -13.90
   ZnCl2           3.856e-30   3.857e-30   -29.414   -29.414     0.000    102.03
   ZnCl3-          8.711e-39   8.341e-39   -38.060   -38.079    -0.019     16.98
   ZnCl4-2         0.000e+00   0.000e+00   -47.019   -47.094    -0.074    145.19
H(0)          0.000e+00
   H2              0.000e+00   0.000e+00   -44.235   -44.235     0.000     14.99
Na            2.013e-09
   Na+             2.012e-09   1.928e-09    -8.696    -8.715    -0.019     -1.47
   NaHCO3          8.871e-13   8.876e-13   -12.052   -12.052     0.000     17.66
O(0)          2.561e-04
   O2              1.281e-04   1.281e-04    -3.893    -3.892     0.000     30.40
Zn            1.500e-12
   ZnCO3           6.248e-13   6.250e-13   -12.204   -12.204     0.000     (0)  
   Zn+2            4.371e-13   3.683e-13   -12.359   -12.434    -0.074    -25.34
   Zn(OH)2         1.756e-13   1.757e-13   -12.755   -12.755     0.000     (0)  
   Zn(CO3)2-2      1.351e-13   1.136e-13   -12.869   -12.944    -0.075     (0)  
   ZnOH+           8.209e-14   7.862e-14   -13.086   -13.104    -0.019     (0)  
   ZnHCO3+         4.511e-14   4.320e-14   -13.346   -13.365    -0.019     (0)  
   Zn(OH)3-        1.129e-16   1.082e-16   -15.947   -15.966    -0.019     (0)  
   ZnOHCl          4.575e-21   4.576e-21   -20.340   -20.339     0.000     (0)  
   Zn(OH)4-2       3.967e-21   3.337e-21   -20.402   -20.477    -0.075     (0)  
   ZnCl+           1.996e-21   1.911e-21   -20.700   -20.719    -0.019    -13.90
   ZnCl2           3.856e-30   3.857e-30   -29.414   -29.414     0.000    102.03
   ZnCl3-          8.711e-39   8.341e-39   -38.060   -38.079    -0.019     16.98
   ZnCl4-2         0.000e+00   0.000e+00   -47.019   -47.094    -0.074    145.19

------------------------------Saturation indices-------------------------------

  Phase               SI** log IAP   log K(298 K,   1 atm)

  Aragonite        -0.11     -8.45   -8.34  CaCO3
  Calcite          -0.00     -8.45   -8.45  CaCO3
  CH4(g)         -142.12   -144.92   -2.80  CH4
  CO2(g)           -3.50     -4.97   -1.47  CO2
  H2(g)           -41.14    -44.24   -3.10  H2
  H2O(g)           -1.50     -0.00    1.50  H2O
  Halite          -19.00    -17.43    1.57  NaCl
  O2(g)            -1.00     -3.89   -2.89  O2
  Smithsonite      -7.50    -17.50  -10.00  ZnCO3
  Zn(OH)2(e)       -7.36      4.14   11.50  Zn(OH)2

**For a gas, SI = log10(fugacity). Fugacity = pressure * phi / 1 atm.
  For ideal gases, phi = 1.

Using solution 2.	
Using pure phase assemblage 2.	
Using solid solution assemblage 2.	
Using kinetics 2.	

Kinetics 2.	

	Time:      0 seconds
	Time step: 3600 seconds

	Rate name       Delta Moles Total Moles   Reactant        Coefficient

	CO2_escape        0.000e+00   1.000e+00   CO2                      -1

-------------------------------Phase assemblage--------------------------------

                                                      Moles in assemblage
Phase               SI  log IAP  log K(T, P)   Initial       Final       Delta

Halite          -19.00   -17.43      1.57    1.000e+01   1.000e+01  -2.013e-09

--------------------------------Solid solutions--------------------------------


Solid solution                Component        Moles  Delta moles   Mole fract

CaZnCO3                                     0.00e+00
                                Calcite     0.00e+00     3.00e-27     0.00e+00
                            Smithsonite     0.00e+00     1.00e-27     0.00e+00

-----------------------------Solution composition------------------------------

	Elements           Molality       Moles

	C                 9.989e-04   9.989e-04
	Ca                5.032e-04   5.032e-04
	Cl                2.013e-09   2.013e-09
	Na                2.013e-09   2.013e-09
	Zn                1.500e-12   1.500e-12

----------------------------Description of solution----------------------------

                                       pH  =   8.289      Charge balance
                                       pe  =  12.253      Adjusted to redox equilibrium
      Specific Conductance (µS/cm,  25°C)  = 99
                          Density (g/cm³)  =   0.99711
                               Volume (L)  =   1.00298
                        Viscosity (mPa s)  =   0.89086
                        Activity of water  =   1.000
                 Ionic strength (mol/kgw)  =   1.502e-03
                       Mass of water (kg)  =   1.000e+00
                 Total alkalinity (eq/kg)  =   1.006e-03
                       Total CO2 (mol/kg)  =   9.989e-04
                         Temperature (°C)  =  25.00
                  Electrical balance (eq)  =   5.837e-18
 Percent error, 100*(Cat-|An|)/(Cat+|An|)  =   0.00
                               Iterations  =   7 (14 overall)
                                  Total H  = 1.110134e+02
                                  Total O  = 5.550946e+01

----------------------------Distribution of species----------------------------

                                               Log       Log       Log    mole V
   Species          Molality    Activity  Molality  Activity     Gamma   cm³/mol

   OH-             2.058e-06   1.970e-06    -5.687    -5.705    -0.019     -4.10
   H+              5.351e-09   5.137e-09    -8.272    -8.289    -0.018      0.00
   H2O             5.551e+01   1.000e+00     1.744    -0.000     0.000     18.07
C(-4)         0.000e+00
   CH4             0.000e+00   0.000e+00  -144.918  -144.918     0.000     35.46
C(4)          9.989e-04
   HCO3-           9.721e-04   9.316e-04    -3.012    -3.031    -0.018     24.57
   CO2             1.076e-05   1.076e-05    -4.968    -4.968     0.000     34.79
   CO3-2           1.008e-05   8.505e-06    -4.996    -5.070    -0.074     -4.64
   CaCO3           5.987e-06   5.989e-06    -5.223    -5.223     0.000    -14.60
   CaHCO3+         3.572e-11   3.424e-11   -10.447   -10.465    -0.018      9.67
   (CO2)2          1.882e-12   1.882e-12   -11.725   -11.725     0.000     68.75
   NaHCO3          8.871e-13   8.876e-13   -12.052   -12.052     0.000     17.66
   ZnCO3           6.248e-13   6.250e-13   -12.204   -12.204     0.000     (0)  
   Zn(CO3)2-2      1.351e-13   1.136e-13   -12.869   -12.944    -0.075     (0)  
   ZnHCO3+         4.511e-14   4.320e-14   -13.346   -13.365    -0.019     (0)  
Ca            5.032e-04
   Ca+2            4.972e-04   4.192e-04    -3.304    -3.378    -0.074    -18.12
   CaCO3           5.987e-06   5.989e-06    -5.223    -5.223     0.000    -14.60
   CaOH+           1.414e-08   1.354e-08    -7.850    -7.868    -0.019     (0)  
   CaHCO3+         3.572e-11   3.424e-11   -10.447   -10.465    -0.018      9.67
Cl            2.013e-09
   Cl-             2.013e-09   1.928e-09    -8.696    -8.715    -0.019     18.08
   HCl             3.406e-18   3.411e-18   -17.468   -17.467     0.001     20.36
   ZnOHCl          4.575e-21   4.576e-21   -20.340   -20.339     0.000     (0)  
   ZnCl+           1.996e-21   1.911e-21   -20.700   -20.719    -0.019    -13.90
   ZnCl2           3.856e-30   3.857e-30   -29.414   -29.414     0.000    102.03
   ZnCl3-          8.711e-39   8.341e-39   -38.060   -38.079    -0.019     16.98
   ZnCl4-2         0.000e+00   0.000e+00   -47.019   -47.094    -0.074    145.19
H(0)          0.000e+00
   H2              0.000e+00   0.000e+00   -44.235   -44.235     0.000     14.99
Na            2.013e-09
   Na+             2.012e-09   1.928e-09    -8.696    -8.715    -0.019     -1.47
   NaHCO3          8.871e-13   8.876e-13   -12.052   -12.052     0.000     17.66
O(0)          2.561e-04
   O2              1.281e-04   1.281e-04    -3.893    -3.892     0.000     30.40
Zn            1.500e-12
   ZnCO3           6.248e-13   6.250e-13   -12.204   -12.204     0.000     (0)  
   Zn+2            4.371e-13   3.683e-13   -12.359   -12.434    -0.074    -25.34
   Zn(OH)2         1.756e-13   1.757e-13   -12.755   -12.755     0.000     (0)  
   Zn(CO3)2-2      1.351e-13   1.136e-13   -12.869   -12.944    -0.075     (0)  
   ZnOH+           8.209e-14   7.862e-14   -13.086   -13.104    -0.019     (0)  
   ZnHCO3+         4.511e-14   4.320e-14   -13.346   -13.365    -0.019     (0)  
   Zn(OH)3-        1.129e-16   1.082e-16   -15.947   -15.966    -0.019     (0)  
   ZnOHCl          4.575e-21   4.576e-21   -20.340   -20.339     0.000     (0)  
   Zn(OH)4-2       3.967e-21   3.337e-21   -20.402   -20.477    -0.075     (0)  
   ZnCl+           1.996e-21   1.911e-21   -20.700   -20.719    -0.019    -13.90
   ZnCl2           3.856e-30   3.857e-30   -29.414   -29.414     0.000    102.03
   ZnCl3-          8.711e-39   8.341e-39   -38.060   -38.079    -0.019     16.98
   ZnCl4-2         0.000e+00   0.000e+00   -47.019   -47.094    -0.074    145.19

------------------------------Saturation indices-------------------------------

  Phase               SI** log IAP   log K(298 K,   1 atm)

  Aragonite        -0.11     -8.45   -8.34  CaCO3
  Calcite          -0.00     -8.45   -8.45  CaCO3
  CH4(g)         -142.12   -144.92   -2.80  CH4
  CO2(g)           -3.50     -4.97   -1.47  CO2
  H2(g)           -41.14    -44.24   -3.10  H2
  H2O(g)           -1.50     -0.00    1.50  H2O
  Halite          -19.00    -17.43    1.57  NaCl
  O2(g)            -1.00     -3.89   -2.89  O2
  Smithsonite      -7.50    -17.50  -10.00  ZnCO3
  Zn(OH)2(e)       -7.36      4.14   11.50  Zn(OH)2

**For a gas, SI = log10(fugacity). Fugacity = pressure * phi / 1 atm.
  For ideal gases, phi = 1.

Using solution 3.	
Using pure phase assemblage 3.	
Using solid solution assemblage 3.	
Using kinetics 3.	

Kinetics 3.	

	Time:      0 seconds
	Time step: 3600 seconds

	Rate name       Delta Moles Total Moles   Reactant        Coefficient

	CO2_escape        0.000e+00   1.000e+00   CO2                      -1

-------------------------------Phase assemblage--------------------------------

                                                      Moles in assemblage
Phase               SI  log IAP  log K(T, P)   Initial       Final       Delta

Halite          -19.00   -17.43      1.57    1.000e+01   1.000e+01  -2.013e-09

--------------------------------Solid solutions--------------------------------


Solid solution                Component        Moles  Delta moles   Mole fract

CaZnCO3                                     0.00e+00
                                Calcite     0.00e+00     3.00e-27     0.00e+00
                            Smithsonite     0.00e+00     1.00e-27     0.00e+00

-----------------------------Solution composition------------------------------

	Elements           Molality       Moles

	C                 9.989e-04   9.989e-04
	Ca                5.032e-04   5.032e-04
	Cl                2.013e-09   2.013e-09
	Na                2.013e-09   2.013e-09
	Zn                1.500e-12   1.500e-12

----------------------------Description of solution----------------------------

                                       pH  =   8.289      Charge balance
                                       pe  =  12.253      Adjusted to redox equilibrium
      Specific Conductance (µS/cm,  25°C)  = 99
                          Density (g/cm³)  =   0.99711
                               Volume (L)  =   1.00298
                        Viscosity (mPa s)  =   0.89086
                        Activity of water  =   1.000
                 Ionic strength (mol/kgw)  =   1.502e-03
                       Mass of water (kg)  =   1.000e+00
                 Total alkalinity (eq/kg)  =   1.006e-03
                       Total CO2 (mol/kg)  =   9.989e-04
                         Temperature (°C)  =  25.00
                  Electrical balance (eq)  =   5.837e-18
 Percent error, 100*(Cat-|An|)/(Cat+|An|)  =   0.00
                               Iterations  =   7 (21 overall)
                                  Total H  = 1.110134e+02
                                  Total O  = 5.550946e+01

----------------------------Distribution of species----------------------------

                                               Log       Log       Log    mole V
   Species          Molality    Activity  Molality  Activity     Gamma   cm³/mol

   OH-             2.058e-06   1.970e-06    -5.687    -5.705    -0.019     -4.10
   H+              5.351e-09   5.137e-09    -8.272    -8.289    -0.018      0.00
   H2O             5.551e+01   1.000e+00     1.744    -0.000     0.000     18.07
C(-4)         0.000e+00
   CH4             0.000e+00   0.000e+00  -144.918  -144.918     0.000     35.46
C(4)          9.989e-04
   HCO3-           9.721e-04   9.316e-04    -3.012    -3.031    -0.018     24.57
   CO2             1.076e-05   1.076e-05    -4.968    -4.968     0.000     34.79
   CO3-2           1.008e-05   8.505e-06    -4.996    -5.070    -0.074     -4.64
   CaCO3           5.987e-06   5.989e-06    -5.223    -5.223     0.000    -14.60
   CaHCO3+         3.572e-11   3.424e-11   -10.447   -10.465    -0.018      9.67
   (CO2)2          1.882e-12   1.882e-12   -11.725   -11.725     0.000     68.75
   NaHCO3          8.871e-13   8.876e-13   -12.052   -12.052     0.000     17.66
   ZnCO3           6.248e-13   6.250e-13   -12.204   -12.204     0.000     (0)  
   Zn(CO3)2-2      1.351e-13   1.136e-13   -12.869   -12.944    -0.075     (0)  
   ZnHCO3+         4.511e-14   4.320e-14   -13.346   -13.365    -0.019     (0)  
Ca            5.032e-04
   Ca+2            4.972e-04   4.192e-04    -3.304    -3.378    -0.074    -18.12
   CaCO3           5.987e-06   5.989e-06    -5.223    -5.223     0.000    -14.60
   CaOH+           1.414e-08   1.354e-08    -7.850    -7.868    -0.019     (0)  
   CaHCO3+         3.572e-11   3.424e-11   -10.447   -10.465    -0.018      9.67
Cl            2.013e-09
   Cl-             2.013e-09   1.928e-09    -8.696    -8.715    -0.019     18.08
   HCl             3.406e-18   3.411e-18   -17.468   -17.467     0.001     20.36
   ZnOHCl          4.575e-21   4.576e-21   -20.340   -20.339     0.000     (0)  
   ZnCl+           1.996e-21   1.911e-21   -20.700   -20.719    -0.019    -13.90
   ZnCl2           3.856e-30   3.857e-30   -29.414   -29.414     0.000    102.03
   ZnCl3-          8.711e-39   8.341e-39   -38.060   -38.079    -0.019     16.98
   ZnCl4-2         0.000e+00   0.000e+00   -47.019   -47.094    -0.074    145.19
H(0)          0.000e+00
   H2              0.000e+00   0.000e+00   -44.235   -44.235     0.000     14.99
Na            2.013e-09
   Na+             2.012e-09   1.928e-09    -8.696    -8.715    -0.019     -1.47
   NaHCO3          8.871e-13   8.876e-13   -12.052   -12.052     0.000     17.66
O(0)          2.561e-04
   O2              1.281e-04   1.281e-04    -3.893    -3.892     0.000     30.40
Zn            1.500e-12
   ZnCO3           6.248e-13   6.250e-13   -12.204   -12.204     0.000     (0)  
   Zn+2            4.371e-13   3.683e-13   -12.359   -12.434    -0.074    -25.34
   Zn(OH)2         1.756e-13   1.757e-13   -12.755   -12.755     0.000     (0)  
   Zn(CO3)2-2      1.351e-13   1.136e-13   -12.869   -12.944    -0.075     (0)  
   ZnOH+           8.209e-14   7.862e-14   -13.086   -13.104    -0.019     (0)  
   ZnHCO3+         4.511e-14   4.320e-14   -13.346   -13.365    -0.019     (0)  
   Zn(OH)3-        1.129e-16   1.082e-16   -15.947   -15.966    -0.019     (0)  
   ZnOHCl          4.575e-21   4.576e-21   -20.340   -20.339     0.000     (0)  
   Zn(OH)4-2       3.967e-21   3.337e-21   -20.402   -20.477    -0.075     (0)  
   ZnCl+           1.996e-21   1.911e-21   -20.700   -20.719    -0.019    -13.90
   ZnCl2           3.856e-30   3.857e-30   -29.414   -29.414     0.000    102.03
   ZnCl3-          8.711e-39   8.341e-39   -38.060   -38.079    -0.019     16.98
   ZnCl4-2         0.000e+00   0.000e+00   -47.019   -47.094    -0.074    145.19

------------------------------Saturation indices-------------------------------

  Phase               SI** log IAP   log K(298 K,   1 atm)

  Aragonite        -0.11     -8.45   -8.34  CaCO3
  Calcite          -0.00     -8.45   -8.45  CaCO3
  CH4(g)         -142.12   -144.92   -2.80  CH4
  CO2(g)           -3.50     -4.97   -1.47  CO2
  H2(g)           -41.14    -44.24   -3.10  H2
  H2O(g)           -1.50     -0.00    1.50  H2O
  Halite          -19.00    -17.43    1.57  NaCl
  O2(g)            -1.00     -3.89   -2.89  O2
  Smithsonite      -7.50    -17.50  -10.00  ZnCO3
  Zn(OH)2(e)       -7.36      4.14   11.50  Zn(OH)2

**For a gas, SI = log10(fugacity). Fugacity = pressure * phi / 1 atm.
  For ideal gases, phi = 1.

Using solution 4.	
Using pure phase assemblage 4.	
Using solid solution assemblage 4.	
Using kinetics 4.	

Kinetics 4.	

	Time:      0 seconds
	Time step: 3600 seconds

	Rate name       Delta Moles Total Moles   Reactant        Coefficient

	CO2_escape        0.000e+00   1.000e+00   CO2                      -1

-------------------------------Phase assemblage--------------------------------

                                                      Moles in assemblage
Phase               SI  log IAP  log K(T, P)   Initial       Final       Delta

Halite          -19.00   -17.43      1.57    1.000e+01   1.000e+01  -2.013e-09

--------------------------------Solid solutions--------------------------------


Solid solution                Component        Moles  Delta moles   Mole fract

CaZnCO3                                     0.00e+00
                                Calcite     0.00e+00     3.00e-27     0.00e+00
                            Smithsonite     0.00e+00     1.00e-27     0.00e+00

-----------------------------Solution composition------------------------------

	Elements           Molality       Moles

	C                 9.989e-04   9.989e-04
	Ca                5.032e-04   5.032e-04
	Cl                2.013e-09   2.013e-09
	Na                2.013e-09   2.013e-09
	Zn                1.500e-12   1.500e-12

----------------------------Description of solution----------------------------

                                       pH  =   8.289      Charge balance
                                       pe  =  12.253      Adjusted to redox equilibrium
      Specific Conductance (µS/cm,  25°C)  = 99
                          Density (g/cm³)  =   0.99711
                               Volume (L)  =   1.00298
                        Viscosity (mPa s)  =   0.89086
                        Activity of water  =   1.000
                 Ionic strength (mol/kgw)  =   1.502e-03
                       Mass of water (kg)  =   1.000e+00
                 Total alkalinity (eq/kg)  =   1.006e-03
                       Total CO2 (mol/kg)  =   9.989e-04
                         Temperature (°C)  =  25.00
                  Electrical balance (eq)  =   5.837e-18
 Percent error, 100*(Cat-|An|)/(Cat+|An|)  =   0.00
                               Iterations  =   7 (28 overall)
                                  Total H  = 1.110134e+02
                                  Total O  = 5.550946e+01

----------------------------Distribution of species----------------------------

                                               Log       Log       Log    mole V
   Species          Molality    Activity  Molality  Activity     Gamma   cm³/mol

   OH-             2.058e-06   1.970e-06    -5.687    -5.705    -0.019     -4.10
   H+              5.351e-09   5.137e-09    -8.272    -8.289    -0.018      0.00
   H2O             5.551e+01   1.000e+00     1.744    -0.000     0.000     18.07
C(-4)         0.000e+00
   CH4             0.000e+00   0.000e+00  -144.918  -144.918     0.000     35.46
C(4)          9.989e-04
   HCO3-           9.721e-04   9.316e-04    -3.012    -3.031    -0.018     24.57
   CO2             1.076e-05   1.076e-05    -4.968    -4.968     0.000     34.79
   CO3-2           1.008e-05   8.505e-06    -4.996    -5.070    -0.074     -4.64
   CaCO3           5.987e-06   5.989e-06    -5.223    -5.223     0.000    -14.60
   CaHCO3+         3.572e-11   3.424e-11   -10.447   -10.465    -0.018      9.67
   (CO2)2          1.882e-12   1.882e-12   -11.725   -11.725     0.000     68.75
   NaHCO3          8.871e-13   8.876e-13   -12.052   -12.052     0.000     17.66
   ZnCO3           6.248e-13   6.250e-13   -12.204   -12.204     0.000     (0)  
   Zn(CO3)2-2      1.351e-13   1.136e-13   -12.869   -12.944    -0.075     (0)  
   ZnHCO3+         4.511e-14   4.320e-14   -13.346   -13.365    -0.019     (0)  
Ca            5.032e-04
   Ca+2            4.972e-04   4.192e-04    -3.304    -3.378    -0.074    -18.12
   CaCO3           5.987e-06   5.989e-06    -5.223    -5.223     0.000    -14.60
   CaOH+           1.414e-08   1.354e-08    -7.850    -7.868    -0.019     (0)  
   CaHCO3+         3.572e-11   3.424e-11   -10.447   -10.465    -0.018      9.67
Cl            2.013e-09
   Cl-             2.013e-09   1.928e-09    -8.696    -8.715    -0.019     18.08
   HCl             3.406e-18   3.411e-18   -17.468   -17.467     0.001     20.36
   ZnOHCl          4.575e-21   4.576e-21   -20.340   -20.339     0.000     (0)  
   ZnCl+           1.996e-21   1.911e-21   -20.700   -20.719    -0.019    -13.90
   ZnCl2           3.856e-30   3.857e-30   -29.414   -29.414     0.000    102.03
   ZnCl3-          8.711e-39   8.341e-39   -38.060   -38.079    -0.019     16.98
   ZnCl4-2         0.000e+00   0.000e+00   -47.019   -47.094    -0.074    145.19
H(0)          0.000e+00
   H2              0.000e+00   0.000e+00   -44.235   -44.235     0.000     14.99
Na            2.013e-09
   Na+             2.012e-09   1.928e-09    -8.696    -8.715    -0.019     -1.47
   NaHCO3          8.871e-13   8.876e-13   -12.052   -12.052     0.000     17.66
O(0)          2.561e-04
   O2              1.281e-04   1.281e-04    -3.893    -3.892     0.000     30.40
Zn            1.500e-12
   ZnCO3           6.248e-13   6.250e-13   -12.204   -12.204     0.000     (0)  
   Zn+2            4.371e-13   3.683e-13   -12.359   -12.434    -0.074    -25.34
   Zn(OH)2         1.756e-13   1.757e-13   -12.755   -12.755     0.000     (0)  
   Zn(CO3)2-2      1.351e-13   1.136e-13   -12.869   -12.944    -0.075     (0)  
   ZnOH+           8.209e-14   7.862e-14   -13.086   -13.104    -0.019     (0)  
   ZnHCO3+         4.511e-14   4.320e-14   -13.346   -13.365    -0.019     (0)  
   Zn(OH)3-        1.129e-16   1.082e-16   -15.947   -15.966    -0.019     (0)  
   ZnOHCl          4.575e-21   4.576e-21   -20.340   -20.339     0.000     (0)  
   Zn(OH)4-2       3.967e-21   3.337e-21   -20.402   -20.477    -0.075     (0)  
   ZnCl+           1.996e-21   1.911e-21   -20.700   -20.719    -0.019    -13.90
   ZnCl2           3.856e-30   3.857e-30   -29.414   -29.414     0.000    102.03
   ZnCl3-          8.711e-39   8.341e-39   -38.060   -38.079    -0.019     16.98
   ZnCl4-2         0.000e+00   0.000e+00   -47.019   -47.094    -0.074    145.19

------------------------------Saturation indices-------------------------------

  Phase               SI** log IAP   log K(298 K,   1 atm)

  Aragonite        -0.11     -8.45   -8.34  CaCO3
  Calcite          -0.00     -8.45   -8.45  CaCO3
  CH4(g)         -142.12   -144.92   -2.80  CH4
  CO2(g)           -3.50     -4.97   -1.47  CO2
  H2(g)           -41.14    -44.24   -3.10  H2
  H2O(g)           -1.50     -0.00    1.50  H2O
  Halite          -19.00    -17.43    1.57  NaCl
  O2(g)            -1.00     -3.89   -2.89  O2
  Smithsonite      -7.50    -17.50  -10.00  ZnCO3
  Zn(OH)2(e)       -7.36      4.14   11.50  Zn(OH)2

**For a gas, SI = log10(fugacity). Fugacity = pressure * phi / 1 atm.
  For ideal gases, phi = 1.

Using solution 5.	
Using pure phase assemblage 5.	
Using solid solution assemblage 5.	
Using kinetics 5.	

Kinetics 5.	

	Time:      0 seconds
	Time step: 3600 seconds

	Rate name       Delta Moles Total Moles   Reactant        Coefficient

	CO2_escape        0.000e+00   1.000e+00   CO2                      -1

-------------------------------Phase assemblage--------------------------------

                                                      Moles in assemblage
Phase               SI  log IAP  log K(T, P)   Initial       Final       Delta

Halite          -19.00   -17.43      1.57    1.000e+01   1.000e+01  -2.013e-09

--------------------------------Solid solutions--------------------------------


Solid solution                Component        Moles  Delta moles   Mole fract

CaZnCO3                                     0.00e+00
                                Calcite     0.00e+00     3.00e-27     0.00e+00
                            Smithsonite     0.00e+00     1.00e-27     0.00e+00

-----------------------------Solution composition------------------------------

	Elements           Molality       Moles

	C                 9.989e-04   9.989e-04
	Ca                5.032e-04   5.032e-04
	Cl                2.013e-09   2.013e-09
	Na                2.013e-09   2.013e-09
	Zn                1.500e-12   1.500e-12

----------------------------Description of solution----------------------------

                                       pH  =   8.289      Charge balance
                                       pe  =  12.253      Adjusted to redox equilibrium
      Specific Conductance (µS/cm,  25°C)  = 99
                          Density (g/cm³)  =   0.99711
                               Volume (L)  =   1.00298
                        Viscosity (mPa s)  =   0.89086
                        Activity of water  =   1.000
                 Ionic strength (mol/kgw)  =   1.502e-03
                       Mass of water (kg)  =   1.000e+00
                 Total alkalinity (eq/kg)  =   1.006e-03
                       Total CO2 (mol/kg)  =   9.989e-04
                         Temperature (°C)  =  25.00
                  Electrical balance (eq)  =   5.837e-18
 Percent error, 100*(Cat-|An|)/(Cat+|An|)  =   0.00
                               Iterations  =   7 (35 overall)
                                  Total H  = 1.110134e+02
                                  Total O  = 5.550946e+01

----------------------------Distribution of species----------------------------

                                               Log       Log       Log    mole V
   Species          Molality    Activity  Molality  Activity     Gamma   cm³/mol

   OH-             2.058e-06   1.970e-06    -5.687    -5.705    -0.019     -4.10
   H+              5.351e-09   5.137e-09    -8.272    -8.289    -0.018      0.00
   H2O             5.551e+01   1.000e+00     1.744    -0.000     0.000     18.07
C(-4)         0.000e+00
   CH4             0.000e+00   0.000e+00  -144.918  -144.918     0.000     35.46
C(4)          9.989e-04
   HCO3-           9.721e-04   9.316e-04    -3.012    -3.031    -0.018     24.57
   CO2             1.076e-05   1.076e-05    -4.968    -4.968     0.000     34.79
   CO3-2           1.008e-05   8.505e-06    -4.996    -5.070    -0.074     -4.64
   CaCO3           5.987e-06   5.989e-06    -5.223    -5.223     0.000    -14.60
   CaHCO3+         3.572e-11   3.424e-11   -10.447   -10.465    -0.018      9.67
   (CO2)2          1.882e-12   1.882e-12   -11.725   -11.725     0.000     68.75
   NaHCO3          8.871e-13   8.876e-13   -12.052   -12.052     0.000     17.66
   ZnCO3           6.248e-13   6.250e-13   -12.204   -12.204     0.000     (0)  
   Zn(CO3)2-2      1.351e-13   1.136e-13   -12.869   -12.944    -0.075     (0)  
   ZnHCO3+         4.511e-14   4.320e-14   -13.346   -13.365    -0.019     (0)  
Ca            5.032e-04
   Ca+2            4.972e-04   4.192e-04    -3.304    -3.378    -0.074    -18.12
   CaCO3           5.987e-06   5.989e-06    -5.223    -5.223     0.000    -14.60
   CaOH+           1.414e-08   1.354e-08    -7.850    -7.868    -0.019     (0)  
   CaHCO3+         3.572e-11   3.424e-11   -10.447   -10.465    -0.018      9.67
Cl            2.013e-09
   Cl-             2.013e-09   1.928e-09    -8.696    -8.715    -0.019     18.08
   HCl             3.406e-18   3.411e-18   -17.468   -17.467     0.001     20.36
   ZnOHCl          4.575e-21   4.576e-21   -20.340   -20.339     0.000     (0)  
   ZnCl+           1.996e-21   1.911e-21   -20.700   -20.719    -0.019    -13.90
   ZnCl2           3.856e-30   3.857e-30   -29.414   -29.414     0.000    102.03
   ZnCl3-          8.711e-39   8.341e-39   -38.060   -38.079    -0.019     16.98
   ZnCl4-2         0.000e+00   0.000e+00   -47.019   -47.094    -0.074    145.19
H(0)          0.000e+00
   H2              0.000e+00   0.000e+00   -44.235   -44.235     0.000     14.99
Na            2.013e-09
   Na+             2.012e-09   1.928e-09    -8.696    -8.715    -0.019     -1.47
   NaHCO3          8.871e-13   8.876e-13   -12.052   -12.052     0.000     17.66
O(0)          2.561e-04
   O2              1.281e-04   1.281e-04    -3.893    -3.892     0.000     30.40
Zn            1.500e-12
   ZnCO3           6.248e-13   6.250e-13   -12.204   -12.204     0.000     (0)  
   Zn+2            4.371e-13   3.683e-13   -12.359   -12.434    -0.074    -25.34
   Zn(OH)2         1.756e-13   1.757e-13   -12.755   -12.755     0.000     (0)  
   Zn(CO3)2-2      1.351e-13   1.136e-13   -12.869   -12.944    -0.075     (0)  
   ZnOH+           8.209e-14   7.862e-14   -13.086   -13.104    -0.019     (0)  
   ZnHCO3+         4.511e-14   4.320e-14   -13.346   -13.365    -0.019     (0)  
   Zn(OH)3-        1.129e-16   1.082e-16   -15.947   -15.966    -0.019     (0)  
   ZnOHCl          4.575e-21   4.576e-21   -20.340   -20.339     0.000     (0)  
   Zn(OH)4-2       3.967e-21   3.337e-21   -20.402   -20.477    -0.075     (0)  
   ZnCl+           1.996e-21   1.911e-21   -20.700   -20.719    -0.019    -13.90
   ZnCl2           3.856e-30   3.857e-30   -29.414   -29.414     0.000    102.03
   ZnCl3-          8.711e-39   8.341e-39   -38.060   -38.079    -0.019     16.98
   ZnCl4-2         0.000e+00   0.000e+00   -47.019   -47.094    -0.074    145.19

------------------------------Saturation indices-------------------------------

  Phase               SI** log IAP   log K(298 K,   1 atm)

  Aragonite        -0.11     -8.45   -8.34  CaCO3
  Calcite          -0.00     -8.45   -8.45  CaCO3
  CH4(g)         -142.12   -144.92   -2.80  CH4
  CO2(g)           -3.50     -4.97   -1.47  CO2
  H2(g)           -41.14    -44.24   -3.10  H2
  H2O(g)           -1.50     -0.00    1.50  H2O
  Halite          -19.00    -17.43    1.57  NaCl
  O2(g)            -1.00     -3.89   -2.89  O2
  Smithsonite      -7.50    -17.50  -10.00  ZnCO3
  Zn(OH)2(e)       -7.36      4.14   11.50  Zn(OH)2

**For a gas, SI = log10(fugacity). Fugacity = pressure * phi / 1 atm.
  For ideal gases, phi = 1.

Using solution 6.	
Using pure phase assemblage 6.	
Using solid solution assemblage 6.	
Using kinetics 6.	

Kinetics 6.	

	Time:      0 seconds
	Time step: 3600 seconds

	Rate name       Delta Moles Total Moles   Reactant        Coefficient

	CO2_escape        0.000e+00   1.000e+00   CO2                      -1

-------------------------------Phase assemblage--------------------------------

                                                      Moles in assemblage
Phase               SI  log IAP  log K(T, P)   Initial       Final       Delta

Halite          -19.00   -17.43      1.57    1.000e+01   1.000e+01  -2.013e-09

--------------------------------Solid solutions--------------------------------


Solid solution                Component        Moles  Delta moles   Mole fract

CaZnCO3                                     0.00e+00
                                Calcite     0.00e+00     3.00e-27     0.00e+00
                            Smithsonite     0.00e+00     1.00e-27     0.00e+00

-----------------------------Solution composition------------------------------

	Elements           Molality       Moles

	C                 9.989e-04   9.989e-04
	Ca                5.032e-04   5.032e-04
	Cl                2.013e-09   2.013e-09
	Na                2.013e-09   2.013e-09
	Zn                1.500e-12   1.500e-12

----------------------------Description of solution----------------------------

                                       pH  =   8.289      Charge balance
                                       pe  =  12.253      Adjusted to redox equilibrium
      Specific Conductance (µS/cm,  25°C)  = 99
                          Density (g/cm³)  =   0.99711
                               Volume (L)  =   1.00298
                        Viscosity (mPa s)  =   0.89086
                        Activity of water  =   1.000
                 Ionic strength (mol/kgw)  =   1.502e-03
                       Mass of water (kg)  =   1.000e+00
                 Total alkalinity (eq/kg)  =   1.006e-03
                       Total CO2 (mol/kg)  =   9.989e-04
                         Temperature (°C)  =  25.00
                  Electrical balance (eq)  =   5.837e-18
 Percent error, 100*(Cat-|An|)/(Cat+|An|)  =   0.00
                               Iterations  =   7 (42 overall)
                                  Total H  = 1.110134e+02
                                  Total O  = 5.550946e+01

----------------------------Distribution of species----------------------------

                                               Log       Log       Log    mole V
   Species          Molality    Activity  Molality  Activity     Gamma   cm³/mol

   OH-             2.058e-06   1.970e-06    -5.687    -5.705    -0.019     -4.10
   H+              5.351e-09   5.137e-09    -8.272    -8.289    -0.018      0.00
   H2O             5.551e+01   1.000e+00     1.744    -0.000     0.000     18.07
C(-4)         0.000e+00
   CH4             0.000e+00   0.000e+00  -144.918  -144.918     0.000     35.46
C(4)          9.989e-04
   HCO3-           9.721e-04   9.316e-04    -3.012    -3.031    -0.018     24.57
   CO2             1.076e-05   1.076e-05    -4.968    -4.968     0.000     34.79
   CO3-2           1.008e-05   8.505e-06    -4.996    -5.070    -0.074     -4.64
   CaCO3           5.987e-06   5.989e-06    -5.223    -5.223     0.000    -14.60
   CaHCO3+         3.572e-11   3.424e-11   -10.447   -10.465    -0.018      9.67
   (CO2)2          1.882e-12   1.882e-12   -11.725   -11.725     0.000     68.75
   NaHCO3          8.871e-13   8.876e-13   -12.052   -12.052     0.000     17.66
   ZnCO3           6.248e-13   6.250e-13   -12.204   -12.204     0.000     (0)  
   Zn(CO3)2-2      1.351e-13   1.136e-13   -12.869   -12.944    -0.075     (0)  
   ZnHCO3+         4.511e-14   4.320e-14   -13.346   -13.365    -0.019     (0)  
Ca            5.032e-04
   Ca+2            4.972e-04   4.192e-04    -3.304    -3.378    -0.074    -18.12
   CaCO3           5.987e-06   5.989e-06    -5.223    -5.223     0.000    -14.60
   CaOH+           1.414e-08   1.354e-08    -7.850    -7.868    -0.019     (0)  
   CaHCO3+         3.572e-11   3.424e-11   -10.447   -10.465    -0.018      9.67
Cl            2.013e-09
   Cl-             2.013e-09   1.928e-09    -8.696    -8.715    -0.019     18.08
   HCl             3.406e-18   3.411e-18   -17.468   -17.467     0.001     20.36
   ZnOHCl          4.575e-21   4.576e-21   -20.340   -20.339     0.000     (0)  
   ZnCl+           1.996e-21   1.911e-21   -20.700   -20.719    -0.019    -13.90
   ZnCl2           3.856e-30   3.857e-30   -29.414   -29.414     0.000    102.03
   ZnCl3-          8.711e-39   8.341e-39   -38.060   -38.079    -0.019     16.98
   ZnCl4-2         0.000e+00   0.000e+00   -47.019   -47.094    -0.074    145.19
H(0)          0.000e+00
   H2              0.000e+00   0.000e+00   -44.235   -44.235     0.000     14.99
Na            2.013e-09
   Na+             2.012e-09   1.928e-09    -8.696    -8.715    -0.019     -1.47
   NaHCO3          8.871e-13   8.876e-13   -12.052   -12.052     0.000     17.66
O(0)          2.561e-04
   O2              1.281e-04   1.281e-04    -3.893    -3.892     0.000     30.40
Zn            1.500e-12
   ZnCO3           6.248e-13   6.250e-13   -12.204   -12.204     0.000     (0)  
   Zn+2            4.371e-13   3.683e-13   -12.359   -12.434    -0.074    -25.34
   Zn(OH)2         1.756e-13   1.757e-13   -12.755   -12.755     0.000     (0)  
   Zn(CO3)2-2      1.351e-13   1.136e-13   -12.869   -12.944    -0.075     (0)  
   ZnOH+           8.209e-14   7.862e-14   -13.086   -13.104    -0.019     (0)  
   ZnHCO3+         4.511e-14   4.320e-14   -13.346   -13.365    -0.019     (0)  
   Zn(OH)3-        1.129e-16   1.082e-16   -15.947   -15.966    -0.019     (0)  
   ZnOHCl          4.575e-21   4.576e-21   -20.340   -20.339     0.000     (0)  
   Zn(OH)4-2       3.967e-21   3.337e-21   -20.402   -20.477    -0.075     (0)  
   ZnCl+           1.996e-21   1.911e-21   -20.700   -20.719    -0.019    -13.90
   ZnCl2           3.856e-30   3.857e-30   -29.414   -29.414     0.000    102.03
   ZnCl3-          8.711e-39   8.341e-39   -38.060   -38.079    -0.019     16.98
   ZnCl4-2         0.000e+00   0.000e+00   -47.019   -47.094    -0.074    145.19

------------------------------Saturation indices-------------------------------

  Phase               SI** log IAP   log K(298 K,   1 atm)

  Aragonite        -0.11     -8.45   -8.34  CaCO3
  Calcite          -0.00     -8.45   -8.45  CaCO3
  CH4(g)         -142.12   -144.92   -2.80  CH4
  CO2(g)           -3.50     -4.97   -1.47  CO2
  H2(g)           -41.14    -44.24   -3.10  H2
  H2O(g)           -1.50     -0.00    1.50  H2O
  Halite          -19.00    -17.43    1.57  NaCl
  O2(g)            -1.00     -3.89   -2.89  O2
  Smithsonite      -7.50    -17.50  -10.00  ZnCO3
  Zn(OH)2(e)       -7.36      4.14   11.50  Zn(OH)2

**For a gas, SI = log10(fugacity). Fugacity = pressure * phi / 1 atm.
  For ideal gases, phi = 1.

Using solution 7.	
Using pure phase assemblage 7.	
Using solid solution assemblage 7.	
Using kinetics 7.	

Kinetics 7.	

	Time:      0 seconds
	Time step: 3600 seconds

	Rate name       Delta Moles Total Moles   Reactant        Coefficient

	CO2_escape        0.000e+00   1.000e+00   CO2                      -1

-------------------------------Phase assemblage--------------------------------

                                                      Moles in assemblage
Phase               SI  log IAP  log K(T, P)   Initial       Final       Delta

Halite          -19.00   -17.43      1.57    1.000e+01   1.000e+01  -2.013e-09

--------------------------------Solid solutions--------------------------------


Solid solution                Component        Moles  Delta moles   Mole fract

CaZnCO3                                     0.00e+00
                                Calcite     0.00e+00     3.00e-27     0.00e+00
                            Smithsonite     0.00e+00     1.00e-27     0.00e+00

-----------------------------Solution composition------------------------------

	Elements           Molality       Moles

	C                 9.989e-04   9.989e-04
	Ca                5.032e-04   5.032e-04
	Cl                2.013e-09   2.013e-09
	Na                2.013e-09   2.013e-09
	Zn                1.500e-12   1.500e-12

----------------------------Description of solution----------------------------

                                       pH  =   8.289      Charge balance
                                       pe  =  12.253      Adjusted to redox equilibrium
      Specific Conductance (µS/cm,  25°C)  = 99
                          Density (g/cm³)  =   0.99711
                               Volume (L)  =   1.00298
                        Viscosity (mPa s)  =   0.89086
                        Activity of water  =   1.000
                 Ionic strength (mol/kgw)  =   1.502e-03
                       Mass of water (kg)  =   1.000e+00
                 Total alkalinity (eq/kg)  =   1.006e-03
                       Total CO2 (mol/kg)  =   9.989e-04
                         Temperature (°C)  =  25.00
                  Electrical balance (eq)  =   5.837e-18
 Percent error, 100*(Cat-|An|)/(Cat+|An|)  =   0.00
                               Iterations  =   7 (49 overall)
                                  Total H  = 1.110134e+02
                                  Total O  = 5.550946e+01

----------------------------Distribution of species----------------------------

                                               Log       Log       Log    mole V
   Species          Molality    Activity  Molality  Activity     Gamma   cm³/mol

   OH-             2.058e-06   1.970e-06    -5.687    -5.705    -0.019     -4.10
   H+              5.351e-09   5.137e-09    -8.272    -8.289    -0.018      0.00
   H2O             5.551e+01   1.000e+00     1.744    -0.000     0.000     18.07
C(-4)         0.000e+00
   CH4             0.000e+00   0.000e+00  -144.918  -144.918     0.000     35.46
C(4)          9.989e-04
   HCO3-           9.721e-04   9.316e-04    -3.012    -3.031    -0.018     24.57
   CO2             1.076e-05   1.076e-05    -4.968    -4.968     0.000     34.79
   CO3-2           1.008e-05   8.505e-06    -4.996    -5.070    -0.074     -4.64
   CaCO3           5.987e-06   5.989e-06    -5.223    -5.223     0.000    -14.60
   CaHCO3+         3.572e-11   3.424e-11   -10.447   -10.465    -0.018      9.67
   (CO2)2          1.882e-12   1.882e-12   -11.725   -11.725     0.000     68.75
   NaHCO3          8.871e-13   8.876e-13   -12.052   -12.052     0.000     17.66
   ZnCO3           6.248e-13   6.250e-13   -12.204   -12.204     0.000     (0)  
   Zn(CO3)2-2      1.351e-13   1.136e-13   -12.869   -12.944    -0.075     (0)  
   ZnHCO3+         4.511e-14   4.320e-14   -13.346   -13.365    -0.019     (0)  
Ca            5.032e-04
   Ca+2            4.972e-04   4.192e-04    -3.304    -3.378    -0.074    -18.12
   CaCO3           5.987e-06   5.989e-06    -5.223    -5.223     0.000    -14.60
   CaOH+           1.414e-08   1.354e-08    -7.850    -7.868    -0.019     (0)  
   CaHCO3+         3.572e-11   3.424e-11   -10.447   -10.465    -0.018      9.67
Cl            2.013e-09
   Cl-             2.013e-09   1.928e-09    -8.696    -8.715    -0.019     18.08
   HCl             3.406e-18   3.411e-18   -17.468   -17.467     0.001     20.36
   ZnOHCl          4.575e-21   4.576e-21   -20.340   -20.339     0.000     (0)  
   ZnCl+           1.996e-21   1.911e-21   -20.700   -20.719    -0.019    -13.90
   ZnCl2           3.856e-30   3.857e-30   -29.414   -29.414     0.000    102.03
   ZnCl3-          8.711e-39   8.341e-39   -38.060   -38.079    -0.019     16.98
   ZnCl4-2         0.000e+00   0.000e+00   -47.019   -47.094    -0.074    145.19
H(0)          0.000e+00
   H2              0.000e+00   0.000e+00   -44.235   -44.235     0.000     14.99
Na            2.013e-09
   Na+             2.012e-09   1.928e-09    -8.696    -8.715    -0.019     -1.47
   NaHCO3          8.871e-13   8.876e-13   -12.052   -12.052     0.000     17.66
O(0)          2.561e-04
   O2              1.281e-04   1.281e-04    -3.893    -3.892     0.000     30.40
Zn            1.500e-12
   ZnCO3           6.248e-13   6.250e-13   -12.204   -12.204     0.000     (0)  
   Zn+2            4.371e-13   3.683e-13   -12.359   -12.434    -0.074    -25.34
   Zn(OH)2         1.756e-13   1.757e-13   -12.755   -12.755     0.000     (0)  
   Zn(CO3)2-2      1.351e-13   1.136e-13   -12.869   -12.944    -0.075     (0)  
   ZnOH+           8.209e-14   7.862e-14   -13.086   -13.104    -0.019     (0)  
   ZnHCO3+         4.511e-14   4.320e-14   -13.346   -13.365    -0.019     (0)  
   Zn(OH)3-        1.129e-16   1.082e-16   -15.947   -15.966    -0.019     (0)  
   ZnOHCl          4.575e-21   4.576e-21   -20.340   -20.339     0.000     (0)  
   Zn(OH)4-2       3.967e-21   3.337e-21   -20.402   -20.477    -0.075     (0)  
   ZnCl+           1.996e-21   1.911e-21   -20.700   -20.719    -0.019    -13.90
   ZnCl2           3.856e-30   3.857e-30   -29.414   -29.414     0.000    102.03
   ZnCl3-          8.711e-39   8.341e-39   -38.060   -38.079    -0.019     16.98
   ZnCl4-2         0.000e+00   0.000e+00   -47.019   -47.094    -0.074    145.19

------------------------------Saturation indices-------------------------------

  Phase               SI** log IAP   log K(298 K,   1 atm)

  Aragonite        -0.11     -8.45   -8.34  CaCO3
  Calcite          -0.00     -8.45   -8.45  CaCO3
  CH4(g)         -142.12   -144.92   -2.80  CH4
  CO2(g)           -3.50     -4.97   -1.47  CO2
  H2(g)           -41.14    -44.24   -3.10  H2
  H2O(g)           -1.50     -0.00    1.50  H2O
  Halite          -19.00    -17.43    1.57  NaCl
  O2(g)            -1.00     -3.89   -2.89  O2
  Smithsonite      -7.50    -17.50  -10.00  ZnCO3
  Zn(OH)2(e)       -7.36      4.14   11.50  Zn(OH)2

**For a gas, SI = log10(fugacity). Fugacity = pressure * phi / 1 atm.
  For ideal gases, phi = 1.

Using solution 8.	
Using pure phase assemblage 8.	
Using solid solution assemblage 8.	
Using kinetics 8.	

Kinetics 8.	

	Time:      0 seconds
	Time step: 3600 seconds

	Rate name       Delta Moles Total Moles   Reactant        Coefficient

	CO2_escape        0.000e+00   1.000e+00   CO2                      -1

-------------------------------Phase assemblage--------------------------------

                                                      Moles in assemblage
Phase               SI  log IAP  log K(T, P)   Initial       Final       Delta

Halite          -19.00   -17.43      1.57    1.000e+01   1.000e+01  -2.013e-09

--------------------------------Solid solutions--------------------------------


Solid solution                Component        Moles  Delta moles   Mole fract

CaZnCO3                                     0.00e+00
                                Calcite     0.00e+00     3.00e-27     0.00e+00
                            Smithsonite     0.00e+00     1.00e-27     0.00e+00

-----------------------------Solution composition------------------------------

	Elements           Molality       Moles

	C                 9.989e-04   9.989e-04
	Ca                5.032e-04   5.032e-04
	Cl                2.013e-09   2.013e-09
	Na                2.013e-09   2.013e-09
	Zn                1.500e-12   1.500e-12

----------------------------Description of solution----------------------------

                                       pH  =   8.289      Charge balance
                                       pe  =  12.253      Adjusted to redox equilibrium
      Specific Conductance (µS/cm,  25°C)  = 99
                          Density (g/cm³)  =   0.99711
                               Volume (L)  =   1.00298
                        Viscosity (mPa s)  =   0.89086
                        Activity of water  =   1.000
                 Ionic strength (mol/kgw)  =   1.502e-03
                       Mass of water (kg)  =   1.000e+00
                 Total alkalinity (eq/kg)  =   1.006e-03
                       Total CO2 (mol/kg)  =   9.989e-04
                         Temperature (°C)  =  25.00
                  Electrical balance (eq)  =   5.837e-18
 Percent error, 100*(Cat-|An|)/(Cat+|An|)  =   0.00
                               Iterations  =   7 (56 overall)
                                  Total H  = 1.110134e+02
                                  Total O  = 5.550946e+01

----------------------------Distribution of species----------------------------

                                               Log       Log       Log    mole V
   Species          Molality    Activity  Molality  Activity     Gamma   cm³/mol

   OH-             2.058e-06   1.970e-06    -5.687    -5.705    -0.019     -4.10
   H+              5.351e-09   5.137e-09    -8.272    -8.289    -0.018      0.00
   H2O             5.551e+01   1.000e+00     1.744    -0.000     0.000     18.07
C(-4)         0.000e+00
   CH4             0.000e+00   0.000e+00  -144.918  -144.918     0.000     35.46
C(4)          9.989e-04
   HCO3-           9.721e-04   9.316e-04    -3.012    -3.031    -0.018     24.57
   CO2             1.076e-05   1.076e-05    -4.968    -4.968     0.000     34.79
   CO3-2           1.008e-05   8.505e-06    -4.996    -5.070    -0.074     -4.64
   CaCO3           5.987e-06   5.989e-06    -5.223    -5.223     0.000    -14.60
   CaHCO3+         3.572e-11   3.424e-11   -10.447   -10.465    -0.018      9.67
   (CO2)2          1.882e-12   1.882e-12   -11.725   -11.725     0.000     68.75
   NaHCO3          8.871e-13   8.876e-13   -12.052   -12.052     0.000     17.66
   ZnCO3           6.248e-13   6.250e-13   -12.204   -12.204     0.000     (0)  
   Zn(CO3)2-2      1.351e-13   1.136e-13   -12.869   -12.944    -0.075     (0)  
   ZnHCO3+         4.511e-14   4.320e-14   -13.346   -13.365    -0.019     (0)  
Ca            5.032e-04
   Ca+2            4.972e-04   4.192e-04    -3.304    -3.378    -0.074    -18.12
   CaCO3           5.987e-06   5.989e-06    -5.223    -5.223     0.000    -14.60
   CaOH+           1.414e-08   1.354e-08    -7.850    -7.868    -0.019     (0)  
   CaHCO3+         3.572e-11   3.424e-11   -10.447   -10.465    -0.018      9.67
Cl            2.013e-09
   Cl-             2.013e-09   1.928e-09    -8.696    -8.715    -0.019     18.08
   HCl             3.406e-18   3.411e-18   -17.468   -17.467     0.001     20.36
   ZnOHCl          4.575e-21   4.576e-21   -20.340   -20.339     0.000     (0)  
   ZnCl+           1.996e-21   1.911e-21   -20.700   -20.719    -0.019    -13.90
   ZnCl2           3.856e-30   3.857e-30   -29.414   -29.414     0.000    102.03
   ZnCl3-          8.711e-39   8.341e-39   -38.060   -38.079    -0.019     16.98
   ZnCl4-2         0.000e+00   0.000e+00   -47.019   -47.094    -0.074    145.19
H(0)          0.000e+00
   H2              0.000e+00   0.000e+00   -44.235   -44.235     0.000     14.99
Na            2.013e-09
   Na+             2.012e-09   1.928e-09    -8.696    -8.715    -0.019     -1.47
   NaHCO3          8.871e-13   8.876e-13   -12.052   -12.052     0.000     17.66
O(0)          2.561e-04
   O2              1.281e-04   1.281e-04    -3.893    -3.892     0.000     30.40
Zn            1.500e-12
   ZnCO3           6.248e-13   6.250e-13   -12.204   -12.204     0.000     (0)  
   Zn+2            4.371e-13   3.683e-13   -12.359   -12.434    -0.074    -25.34
   Zn(OH)2         1.756e-13   1.757e-13   -12.755   -12.755     0.000     (0)  
   Zn(CO3)2-2      1.351e-13   1.136e-13   -12.869   -12.944    -0.075     (0)  
   ZnOH+           8.209e-14   7.862e-14   -13.086   -13.104    -0.019     (0)  
   ZnHCO3+         4.511e-14   4.320e-14   -13.346   -13.365    -0.019     (0)  
   Zn(OH)3-        1.129e-16   1.082e-16   -15.947   -15.966    -0.019     (0)  
   ZnOHCl          4.575e-21   4.576e-21   -20.340   -20.339     0.000     (0)  
   Zn(OH)4-2       3.967e-21   3.337e-21   -20.402   -20.477    -0.075     (0)  
   ZnCl+           1.996e-21   1.911e-21   -20.700   -20.719    -0.019    -13.90
   ZnCl2           3.856e-30   3.857e-30   -29.414   -29.414     0.000    102.03
   ZnCl3-          8.711e-39   8.341e-39   -38.060   -38.079    -0.019     16.98
   ZnCl4-2         0.000e+00   0.000e+00   -47.019   -47.094    -0.074    145.19

------------------------------Saturation indices-------------------------------

  Phase               SI** log IAP   log K(298 K,   1 atm)

  Aragonite        -0.11     -8.45   -8.34  CaCO3
  Calcite          -0.00     -8.45   -8.45  CaCO3
  CH4(g)         -142.12   -144.92   -2.80  CH4
  CO2(g)           -3.50     -4.97   -1.47  CO2
  H2(g)           -41.14    -44.24   -3.10  H2
  H2O(g)           -1.50     -0.00    1.50  H2O
  Halite          -19.00    -17.43    1.57  NaCl
  O2(g)            -1.00     -3.89   -2.89  O2
  Smithsonite      -7.50    -17.50  -10.00  ZnCO3
  Zn(OH)2(e)       -7.36      4.14   11.50  Zn(OH)2

**For a gas, SI = log10(fugacity). Fugacity = pressure * phi / 1 atm.
  For ideal gases, phi = 1.

Using solution 9.	
Using pure phase assemblage 9.	
Using solid solution assemblage 9.	
Using kinetics 9.	

Kinetics 9.	

	Time:      0 seconds
	Time step: 3600 seconds

	Rate name       Delta Moles Total Moles   Reactant        Coefficient

	CO2_escape        0.000e+00   1.000e+00   CO2                      -1

-------------------------------Phase assemblage--------------------------------

                                                      Moles in assemblage
Phase               SI  log IAP  log K(T, P)   Initial       Final       Delta

Halite          -19.00   -17.43      1.57    1.000e+01   1.000e+01  -2.013e-09

--------------------------------Solid solutions--------------------------------


Solid solution                Component        Moles  Delta moles   Mole fract

CaZnCO3                                     0.00e+00
                                Calcite     0.00e+00     3.00e-27     0.00e+00
                            Smithsonite     0.00e+00     1.00e-27     0.00e+00

-----------------------------Solution composition------------------------------

	Elements           Molality       Moles

	C                 9.989e-04   9.989e-04
	Ca                5.032e-04   5.032e-04
	Cl                2.013e-09   2.013e-09
	Na                2.013e-09   2.013e-09
	Zn                1.500e-12   1.500e-12

----------------------------Description of solution----------------------------

                                       pH  =   8.289      Charge balance
                                       pe  =  12.253      Adjusted to redox equilibrium
      Specific Conductance (µS/cm,  25°C)  = 99
                          Density (g/cm³)  =   0.99711
                               Volume (L)  =   1.00298
                        Viscosity (mPa s)  =   0.89086
                        Activity of water  =   1.000
                 Ionic strength (mol/kgw)  =   1.502e-03
                       Mass of water (kg)  =   1.000e+00
                 Total alkalinity (eq/kg)  =   1.006e-03
                       Total CO2 (mol/kg)  =   9.989e-04
                         Temperature (°C)  =  25.00
                  Electrical balance (eq)  =   5.837e-18
 Percent error, 100*(Cat-|An|)/(Cat+|An|)  =   0.00
                               Iterations  =   7 (63 overall)
                                  Total H  = 1.110134e+02
                                  Total O  = 5.550946e+01

----------------------------Distribution of species----------------------------

                                               Log       Log       Log    mole V
   Species          Molality    Activity  Molality  Activity     Gamma   cm³/mol

   OH-             2.058e-06   1.970e-06    -5.687    -5.705    -0.019     -4.10
   H+              5.351e-09   5.137e-09    -8.272    -8.289    -0.018      0.00
   H2O             5.551e+01   1.000e+00     1.744    -0.000     0.000     18.07
C(-4)         0.000e+00
   CH4             0.000e+00   0.000e+00  -144.918  -144.918     0.000     35.46
C(4)          9.989e-04
   HCO3-           9.721e-04   9.316e-04    -3.012    -3.031    -0.018     24.57
   CO2             1.076e-05   1.076e-05    -4.968    -4.968     0.000     34.79
   CO3-2           1.008e-05   8.505e-06    -4.996    -5.070    -0.074     -4.64
   CaCO3           5.987e-06   5.989e-06    -5.223    -5.223     0.000    -14.60
   CaHCO3+         3.572e-11   3.424e-11   -10.447   -10.465    -0.018      9.67
   (CO2)2          1.882e-12   1.882e-12   -11.725   -11.725     0.000     68.75
   NaHCO3          8.871e-13   8.876e-13   -12.052   -12.052     0.000     17.66
   ZnCO3           6.248e-13   6.250e-13   -12.204   -12.204     0.000     (0)  
   Zn(CO3)2-2      1.351e-13   1.136e-13   -12.869   -12.944    -0.075     (0)  
   ZnHCO3+         4.511e-14   4.320e-14   -13.346   -13.365    -0.019     (0)  
Ca            5.032e-04
   Ca+2            4.972e-04   4.192e-04    -3.304    -3.378    -0.074    -18.12
   CaCO3           5.987e-06   5.989e-06    -5.223    -5.223     0.000    -14.60
   CaOH+           1.414e-08   1.354e-08    -7.850    -7.868    -0.019     (0)  
   CaHCO3+         3.572e-11   3.424e-11   -10.447   -10.465    -0.018      9.67
Cl            2.013e-09
   Cl-             2.013e-09   1.928e-09    -8.696    -8.715    -0.019     18.08
   HCl             3.406e-18   3.411e-18   -17.468   -17.467     0.001     20.36
   ZnOHCl          4.575e-21   4.576e-21   -20.340   -20.339     0.000     (0)  
   ZnCl+           1.996e-21   1.911e-21   -20.700   -20.719    -0.019    -13.90
   ZnCl2           3.856e-30   3.857e-30   -29.414   -29.414     0.000    102.03
   ZnCl3-          8.711e-39   8.341e-39   -38.060   -38.079    -0.019     16.98
   ZnCl4-2         0.000e+00   0.000e+00   -47.019   -47.094    -0.074    145.19
H(0)          0.000e+00
   H2              0.000e+00   0.000e+00   -44.235   -44.235     0.000     14.99
Na            2.013e-09
   Na+             2.012e-09   1.928e-09    -8.696    -8.715    -0.019     -1.47
   NaHCO3          8.871e-13   8.876e-13   -12.052   -12.052     0.000     17.66
O(0)          2.561e-04
   O2              1.281e-04   1.281e-04    -3.893    -3.892     0.000     30.40
Zn            1.500e-12
   ZnCO3           6.248e-13   6.250e-13   -12.204   -12.204     0.000     (0)  
   Zn+2            4.371e-13   3.683e-13   -12.359   -12.434    -0.074    -25.34
   Zn(OH)2         1.756e-13   1.757e-13   -12.755   -12.755     0.000     (0)  
   Zn(CO3)2-2      1.351e-13   1.136e-13   -12.869   -12.944    -0.075     (0)  
   ZnOH+           8.209e-14   7.862e-14   -13.086   -13.104    -0.019     (0)  
   ZnHCO3+         4.511e-14   4.320e-14   -13.346   -13.365    -0.019     (0)  
   Zn(OH)3-        1.129e-16   1.082e-16   -15.947   -15.966    -0.019     (0)  
   ZnOHCl          4.575e-21   4.576e-21   -20.340   -20.339     0.000     (0)  
   Zn(OH)4-2       3.967e-21   3.337e-21   -20.402   -20.477    -0.075     (0)  
   ZnCl+           1.996e-21   1.911e-21   -20.700   -20.719    -0.019    -13.90
   ZnCl2           3.856e-30   3.857e-30   -29.414   -29.414     0.000    102.03
   ZnCl3-          8.711e-39   8.341e-39   -38.060   -38.079    -0.019     16.98
   ZnCl4-2         0.000e+00   0.000e+00   -47.019   -47.094    -0.074    145.19

------------------------------Saturation indices-------------------------------

  Phase               SI** log IAP   log K(298 K,   1 atm)

  Aragonite        -0.11     -8.45   -8.34  CaCO3
  Calcite          -0.00     -8.45   -8.45  CaCO3
  CH4(g)         -142.12   -144.92   -2.80  CH4
  CO2(g)           -3.50     -4.97   -1.47  CO2
  H2(g)           -41.14    -44.24   -3.10  H2
  H2O(g)           -1.50     -0.00    1.50  H2O
  Halite          -19.00    -17.43    1.57  NaCl
  O2(g)            -1.00     -3.89   -2.89  O2
[...]
                               Volume (L)  =   1.00300
                        Viscosity (mPa s)  =   0.89094
                        Activity of water  =   1.000
                 Ionic strength (mol/kgw)  =   1.736e-03
                       Mass of water (kg)  =   1.000e+00
                 Total alkalinity (eq/kg)  =   1.165e-03
                       Total CO2 (mol/kg)  =   1.164e-03
                         Temperature (°C)  =  25.00
                  Electrical balance (eq)  =   6.037e-12
 Percent error, 100*(Cat-|An|)/(Cat+|An|)  =   0.00
                               Iterations  =  21
                                  Total H  = 1.110154e+02
                                  Total O  = 5.551087e+01

----------------------------Distribution of species----------------------------

                                               Log       Log       Log    mole V
   Species          Molality    Activity  Molality  Activity     Gamma   cm³/mol

   OH-             1.554e-06   1.483e-06    -5.809    -5.829    -0.020     -4.10
   H+              7.128e-09   6.824e-09    -8.147    -8.166    -0.019      0.00
   H2O             5.551e+01   1.000e+00     1.744    -0.000     0.000     18.07
C(-4)         0.000e+00
   CH4             0.000e+00   0.000e+00  -144.730  -144.729     0.000     35.46
C(4)          1.164e-03
   HCO3-           1.132e-03   1.082e-03    -2.946    -2.966    -0.020     24.58
   CO2             1.659e-05   1.660e-05    -4.780    -4.780     0.000     34.79
   CO3-2           8.920e-06   7.434e-06    -5.050    -5.129    -0.079     -4.63
   CaCO3           5.984e-06   5.986e-06    -5.223    -5.223     0.000    -14.60
   ZnCO3           4.685e-07   4.687e-07    -6.329    -6.329     0.000     (0)  
   Zn(CO3)2-2      8.968e-08   7.449e-08    -7.047    -7.128    -0.081     (0)  
   ZnHCO3+         4.508e-08   4.303e-08    -7.346    -7.366    -0.020     (0)  
   CaHCO3+         4.757e-11   4.546e-11   -10.323   -10.342    -0.020      9.68
   (CO2)2          4.477e-12   4.478e-12   -11.349   -11.349     0.000     68.75
   NaHCO3          1.030e-12   1.031e-12   -11.987   -11.987     0.000     17.66
Ca            5.814e-04
   Ca+2            5.754e-04   4.794e-04    -3.240    -3.319    -0.079    -18.11
   CaCO3           5.984e-06   5.986e-06    -5.223    -5.223     0.000    -14.60
   CaOH+           1.221e-08   1.166e-08    -7.913    -7.933    -0.020     (0)  
   CaHCO3+         4.757e-11   4.546e-11   -10.323   -10.342    -0.020      9.68
Cl            2.019e-09
   Cl-             2.019e-09   1.928e-09    -8.695    -8.715    -0.020     18.08
   ZnOHCl          2.955e-15   2.956e-15   -14.530   -14.529     0.000     (0)  
   ZnCl+           1.717e-15   1.640e-15   -14.765   -14.785    -0.020    -13.90
   HCl             4.523e-18   4.531e-18   -17.345   -17.344     0.001     20.36
   ZnCl2           3.308e-24   3.309e-24   -23.480   -23.480     0.000    102.03
   ZnCl3-          7.496e-33   7.157e-33   -32.125   -32.145    -0.020     16.98
   ZnCl4-2         0.000e+00   0.000e+00   -41.081   -41.160    -0.080    145.20
H(0)          0.000e+00
   H2              0.000e+00   0.000e+00   -44.235   -44.235     0.000     14.99
Na            2.019e-09
   Na+             2.018e-09   1.928e-09    -8.695    -8.715    -0.020     -1.46
   NaHCO3          1.030e-12   1.031e-12   -11.987   -11.987     0.000     17.66
O(0)          2.560e-04
   O2              1.280e-04   1.280e-04    -3.893    -3.893     0.000     30.40
Zn            1.121e-06
   ZnCO3           4.685e-07   4.687e-07    -6.329    -6.329     0.000     (0)  
   Zn+2            3.796e-07   3.160e-07    -6.421    -6.500    -0.080    -25.33
   Zn(CO3)2-2      8.968e-08   7.449e-08    -7.047    -7.128    -0.081     (0)  
   Zn(OH)2         8.540e-08   8.543e-08    -7.069    -7.068     0.000     (0)  
   ZnOH+           5.319e-08   5.078e-08    -7.274    -7.294    -0.020     (0)  
   ZnHCO3+         4.508e-08   4.303e-08    -7.346    -7.366    -0.020     (0)  
   Zn(OH)3-        4.147e-11   3.959e-11   -10.382   -10.402    -0.020     (0)  
   ZnOHCl          2.955e-15   2.956e-15   -14.530   -14.529     0.000     (0)  
   ZnCl+           1.717e-15   1.640e-15   -14.765   -14.785    -0.020    -13.90
   Zn(OH)4-2       1.107e-15   9.194e-16   -14.956   -15.036    -0.081     (0)  
   ZnCl2           3.308e-24   3.309e-24   -23.480   -23.480     0.000    102.03
   ZnCl3-          7.496e-33   7.157e-33   -32.125   -32.145    -0.020     16.98
   ZnCl4-2         0.000e+00   0.000e+00   -41.081   -41.160    -0.080    145.20

------------------------------Saturation indices-------------------------------

  Phase               SI** log IAP   log K(298 K,   1 atm)

  Aragonite        -0.11     -8.45   -8.34  CaCO3
  Calcite          -0.00     -8.45   -8.45  CaCO3
  CH4(g)         -141.93   -144.73   -2.80  CH4
  CO2(g)           -3.31     -4.78   -1.47  CO2
  H2(g)           -41.14    -44.23   -3.10  H2
  H2O(g)           -1.50     -0.00    1.50  H2O
  Halite          -19.00    -17.43    1.57  NaCl
  O2(g)            -1.00     -3.89   -2.89  O2
  Smithsonite      -1.63    -11.63  -10.00  ZnCO3
  Zn(OH)2(e)       -1.67      9.83   11.50  Zn(OH)2

**For a gas, SI = log10(fugacity). Fugacity = pressure * phi / 1 atm.
  For ideal gases, phi = 1.

Using solution 9.	Solution after simulation 3.
Using pure phase assemblage 9.	Pure-phase assemblage after simulation 3.
Using solid solution assemblage 9.	Solid solution assemblage after simulation 3
Using kinetics 9.	

Kinetics 9.	

	Time:      36000 seconds
	Time step: 3600 seconds

	Rate name       Delta Moles Total Moles   Reactant        Coefficient

	CO2_escape       -3.087e-05   9.999e-01   CO2                      -1

-------------------------------Phase assemblage--------------------------------

                                                      Moles in assemblage
Phase               SI  log IAP  log K(T, P)   Initial       Final       Delta

Halite          -19.00   -17.43      1.57    1.000e+01   1.000e+01   2.183e-12

--------------------------------Solid solutions--------------------------------


Solid solution                Component        Moles  Delta moles   Mole fract

CaZnCO3                                     5.61e-05
                                Calcite     5.60e-05     2.80e-05     1.00e+00
                            Smithsonite     2.40e-08     1.20e-08     4.28e-04

-----------------------------Solution composition------------------------------

	Elements           Molality       Moles

	C                 1.105e-03   1.105e-03
	Ca                5.534e-04   5.534e-04
	Cl                2.017e-09   2.017e-09
	Na                2.017e-09   2.017e-09
	Zn                1.109e-06   1.110e-06

----------------------------Description of solution----------------------------

                                       pH  =   8.208      Charge balance
                                       pe  =  12.335      Adjusted to redox equilibrium
      Specific Conductance (µS/cm,  25°C)  = 108
                          Density (g/cm³)  =   0.99712
                               Volume (L)  =   1.00300
                        Viscosity (mPa s)  =   0.89091
                        Activity of water  =   1.000
                 Ionic strength (mol/kgw)  =   1.653e-03
                       Mass of water (kg)  =   1.000e+00
                 Total alkalinity (eq/kg)  =   1.109e-03
                       Total CO2 (mol/kg)  =   1.105e-03
                         Temperature (°C)  =  25.00
                  Electrical balance (eq)  =   6.045e-12
 Percent error, 100*(Cat-|An|)/(Cat+|An|)  =   0.00
                               Iterations  =  21
                                  Total H  = 1.110154e+02
                                  Total O  = 5.551073e+01

----------------------------Distribution of species----------------------------

                                               Log       Log       Log    mole V
   Species          Molality    Activity  Molality  Activity     Gamma   cm³/mol

   OH-             1.710e-06   1.633e-06    -5.767    -5.787    -0.020     -4.10
   H+              6.467e-09   6.197e-09    -8.189    -8.208    -0.019      0.00
   H2O             5.551e+01   1.000e+00     1.744    -0.000     0.000     18.07
C(-4)         0.000e+00
   CH4             0.000e+00   0.000e+00  -144.793  -144.793     0.000     35.46
C(4)          1.105e-03
   HCO3-           1.075e-03   1.028e-03    -2.969    -2.988    -0.019     24.57
   CO2             1.432e-05   1.433e-05    -4.844    -4.844     0.000     34.79
   CO3-2           9.299e-06   7.782e-06    -5.032    -5.109    -0.077     -4.63
   CaCO3           5.984e-06   5.986e-06    -5.223    -5.223     0.000    -14.60
   ZnCO3           4.646e-07   4.648e-07    -6.333    -6.333     0.000     (0)  
   Zn(CO3)2-2      9.269e-08   7.733e-08    -7.033    -7.112    -0.079     (0)  
   ZnHCO3+         4.055e-08   3.875e-08    -7.392    -7.412    -0.020     (0)  
   CaHCO3+         4.315e-11   4.128e-11   -10.365   -10.384    -0.019      9.68
   (CO2)2          3.336e-12   3.337e-12   -11.477   -11.477     0.000     68.75
   NaHCO3          9.791e-13   9.796e-13   -12.009   -12.009     0.000     17.66
Ca            5.534e-04
   Ca+2            5.474e-04   4.579e-04    -3.262    -3.339    -0.077    -18.11
   CaCO3           5.984e-06   5.986e-06    -5.223    -5.223     0.000    -14.60
   CaOH+           1.283e-08   1.226e-08    -7.892    -7.911    -0.020     (0)  
   CaHCO3+         4.315e-11   4.128e-11   -10.365   -10.384    -0.019      9.68
Cl            2.017e-09
   Cl-             2.017e-09   1.928e-09    -8.695    -8.715    -0.020     18.08
   ZnOHCl          3.082e-15   3.083e-15   -14.511   -14.511     0.000     (0)  
   ZnCl+           1.625e-15   1.553e-15   -14.789   -14.809    -0.020    -13.90
   HCl             4.108e-18   4.115e-18   -17.386   -17.386     0.001     20.36
   ZnCl2           3.133e-24   3.135e-24   -23.504   -23.504     0.000    102.03
   ZnCl3-          7.093e-33   6.779e-33   -32.149   -32.169    -0.020     16.98
   ZnCl4-2         0.000e+00   0.000e+00   -41.106   -41.184    -0.078    145.20
H(0)          0.000e+00
   H2              0.000e+00   0.000e+00   -44.235   -44.235     0.000     14.99
Na            2.017e-09
   Na+             2.016e-09   1.928e-09    -8.695    -8.715    -0.020     -1.46
   NaHCO3          9.791e-13   9.796e-13   -12.009   -12.009     0.000     17.66
O(0)          2.560e-04
   O2              1.280e-04   1.280e-04    -3.893    -3.893     0.000     30.40
Zn            1.109e-06
   ZnCO3           4.646e-07   4.648e-07    -6.333    -6.333     0.000     (0)  
   Zn+2            3.580e-07   2.994e-07    -6.446    -6.524    -0.078    -25.33
   Zn(OH)2         9.810e-08   9.814e-08    -7.008    -7.008     0.000     (0)  
   Zn(CO3)2-2      9.269e-08   7.733e-08    -7.033    -7.112    -0.079     (0)  
   ZnOH+           5.542e-08   5.297e-08    -7.256    -7.276    -0.020     (0)  
   ZnHCO3+         4.055e-08   3.875e-08    -7.392    -7.412    -0.020     (0)  
   Zn(OH)3-        5.240e-11   5.008e-11   -10.281   -10.300    -0.020     (0)  
   ZnOHCl          3.082e-15   3.083e-15   -14.511   -14.511     0.000     (0)  
   ZnCl+           1.625e-15   1.553e-15   -14.789   -14.809    -0.020    -13.90
   Zn(OH)4-2       1.535e-15   1.281e-15   -14.814   -14.893    -0.079     (0)  
   ZnCl2           3.133e-24   3.135e-24   -23.504   -23.504     0.000    102.03
   ZnCl3-          7.093e-33   6.779e-33   -32.149   -32.169    -0.020     16.98
   ZnCl4-2         0.000e+00   0.000e+00   -41.106   -41.184    -0.078    145.20

------------------------------Saturation indices-------------------------------

  Phase               SI** log IAP   log K(298 K,   1 atm)

  Aragonite        -0.11     -8.45   -8.34  CaCO3
  Calcite          -0.00     -8.45   -8.45  CaCO3
  CH4(g)         -141.99   -144.79   -2.80  CH4
  CO2(g)           -3.38     -4.84   -1.47  CO2
  H2(g)           -41.14    -44.23   -3.10  H2
  H2O(g)           -1.50     -0.00    1.50  H2O
  Halite          -19.00    -17.43    1.57  NaCl
  O2(g)            -1.00     -3.89   -2.89  O2
  Smithsonite      -1.63    -11.63  -10.00  ZnCO3
  Zn(OH)2(e)       -1.61      9.89   11.50  Zn(OH)2

**For a gas, SI = log10(fugacity). Fugacity = pressure * phi / 1 atm.
  For ideal gases, phi = 1.

WARNING: Maximum iterations exceeded, 300

WARNING: Numerical method failed with this set of convergence parameters.

WARNING: Trying reduced tolerance 1e-16 ...

WARNING: Maximum iterations exceeded, 600

WARNING: Numerical method failed with this set of convergence parameters.

WARNING: Trying increased tolerance 1e-14 ...

Using solution 10.	Solution after simulation 3.
Using pure phase assemblage 10.	Pure-phase assemblage after simulation 3.
Using solid solution assemblage 10.	Solid solution assemblage after simulation 3
Using kinetics 10.	

Kinetics 10.	

	Time:      36000 seconds
	Time step: 3600 seconds

	Rate name       Delta Moles Total Moles   Reactant        Coefficient

	CO2_escape       -2.019e-05   1.000e+00   CO2                      -1

-------------------------------Phase assemblage--------------------------------

                                                      Moles in assemblage
Phase               SI  log IAP  log K(T, P)   Initial       Final       Delta

Halite          -19.00   -17.43      1.57    1.000e+01   1.000e+01   1.464e-12

--------------------------------Solid solutions--------------------------------


Solid solution                Component        Moles  Delta moles   Mole fract

CaZnCO3                                     1.84e-05
                                Calcite     1.84e-05     1.84e-05     1.00e+00
                            Smithsonite     7.82e-09     7.82e-09     4.25e-04

-----------------------------Solution composition------------------------------

	Elements           Molality       Moles

	C                 1.067e-03   1.067e-03
	Ca                5.350e-04   5.350e-04
	Cl                2.016e-09   2.016e-09
	Na                2.016e-09   2.016e-09
	Zn                1.102e-06   1.102e-06

----------------------------Description of solution----------------------------

                                       pH  =   8.237      Charge balance
                                       pe  =  12.306      Adjusted to redox equilibrium
      Specific Conductance (µS/cm,  25°C)  = 105
                          Density (g/cm³)  =   0.99711
                               Volume (L)  =   1.00300
                        Viscosity (mPa s)  =   0.89089
                        Activity of water  =   1.000
                 Ionic strength (mol/kgw)  =   1.598e-03
                       Mass of water (kg)  =   1.000e+00
                 Total alkalinity (eq/kg)  =   1.072e-03
                       Total CO2 (mol/kg)  =   1.067e-03
                         Temperature (°C)  =  25.00
                  Electrical balance (eq)  =   2.022e-15
 Percent error, 100*(Cat-|An|)/(Cat+|An|)  =   0.00
                               Iterations  = 296 (1198 overall)
                                  Total H  = 1.110154e+02
                                  Total O  = 5.551063e+01

----------------------------Distribution of species----------------------------

                                               Log       Log       Log    mole V
   Species          Molality    Activity  Molality  Activity     Gamma   cm³/mol

   OH-             1.825e-06   1.745e-06    -5.739    -5.758    -0.019     -4.10
   H+              6.049e-09   5.800e-09    -8.218    -8.237    -0.018      0.00
   H2O             5.551e+01   1.000e+00     1.744    -0.000     0.000     18.07
C(-4)         0.000e+00
   CH4             0.000e+00   0.000e+00  -144.837  -144.837     0.000     35.46
C(4)          1.067e-03
   HCO3-           1.038e-03   9.931e-04    -2.984    -3.003    -0.019     24.57
   CO2             1.295e-05   1.295e-05    -4.888    -4.888     0.000     34.79
   CO3-2           9.569e-06   8.030e-06    -5.019    -5.095    -0.076     -4.64
   CaCO3           5.984e-06   5.986e-06    -5.223    -5.223     0.000    -14.60
   ZnCO3           4.612e-07   4.614e-07    -6.336    -6.336     0.000     (0)  
   Zn(CO3)2-2      9.467e-08   7.921e-08    -7.024    -7.101    -0.077     (0)  
   ZnHCO3+         3.764e-08   3.600e-08    -7.424    -7.444    -0.019     (0)  
   CaHCO3+         4.036e-11   3.864e-11   -10.394   -10.413    -0.019      9.68
   (CO2)2          2.726e-12   2.727e-12   -11.564   -11.564     0.000     68.75
   NaHCO3          9.456e-13   9.461e-13   -12.024   -12.024     0.000     17.66
Ca            5.350e-04
   Ca+2            5.290e-04   4.438e-04    -3.277    -3.353    -0.076    -18.11
   CaCO3           5.984e-06   5.986e-06    -5.223    -5.223     0.000    -14.60
   CaOH+           1.328e-08   1.270e-08    -7.877    -7.896    -0.019     (0)  
   CaHCO3+         4.036e-11   3.864e-11   -10.394   -10.413    -0.019      9.68
Cl            2.016e-09
   Cl-             2.016e-09   1.928e-09    -8.696    -8.715    -0.019     18.08
   ZnOHCl          3.168e-15   3.169e-15   -14.499   -14.499     0.000     (0)  
   ZnCl+           1.562e-15   1.494e-15   -14.806   -14.826    -0.019    -13.90
   HCl             3.845e-18   3.851e-18   -17.415   -17.414     0.001     20.36
   ZnCl2           3.014e-24   3.015e-24   -23.521   -23.521     0.000    102.03
   ZnCl3-          6.819e-33   6.521e-33   -32.166   -32.186    -0.019     16.98
   ZnCl4-2         0.000e+00   0.000e+00   -41.124   -41.201    -0.077    145.20
H(0)          0.000e+00
   H2              0.000e+00   0.000e+00   -44.235   -44.235     0.000     14.99
Na            2.016e-09
   Na+             2.015e-09   1.928e-09    -8.696    -8.715    -0.019     -1.47
   NaHCO3          9.456e-13   9.461e-13   -12.024   -12.024     0.000     17.66
O(0)          2.560e-04
   O2              1.280e-04   1.280e-04    -3.893    -3.893     0.000     30.40
Zn            1.102e-06
   ZnCO3           4.612e-07   4.614e-07    -6.336    -6.336     0.000     (0)  
   Zn+2            3.434e-07   2.880e-07    -6.464    -6.541    -0.077    -25.33
   Zn(OH)2         1.077e-07   1.078e-07    -6.968    -6.968     0.000     (0)  
   Zn(CO3)2-2      9.467e-08   7.921e-08    -7.024    -7.101    -0.077     (0)  
   ZnOH+           5.692e-08   5.444e-08    -7.245    -7.264    -0.019     (0)  
   ZnHCO3+         3.764e-08   3.600e-08    -7.424    -7.444    -0.019     (0)  
   Zn(OH)3-        6.143e-11   5.875e-11   -10.212   -10.231    -0.019     (0)  
   ZnOHCl          3.168e-15   3.169e-15   -14.499   -14.499     0.000     (0)  
   Zn(OH)4-2       1.919e-15   1.605e-15   -14.717   -14.794    -0.077     (0)  
   ZnCl+           1.562e-15   1.494e-15   -14.806   -14.826    -0.019    -13.90
   ZnCl2           3.014e-24   3.015e-24   -23.521   -23.521     0.000    102.03
   ZnCl3-          6.819e-33   6.521e-33   -32.166   -32.186    -0.019     16.98
   ZnCl4-2         0.000e+00   0.000e+00   -41.124   -41.201    -0.077    145.20

------------------------------Saturation indices-------------------------------

  Phase               SI** log IAP   log K(298 K,   1 atm)

  Aragonite        -0.11     -8.45   -8.34  CaCO3
  Calcite          -0.00     -8.45   -8.45  CaCO3
  CH4(g)         -142.04   -144.84   -2.80  CH4
  CO2(g)           -3.42     -4.89   -1.47  CO2
  H2(g)           -41.14    -44.23   -3.10  H2
  H2O(g)           -1.50     -0.00    1.50  H2O
  Halite          -19.00    -17.43    1.57  NaCl
  O2(g)            -1.00     -3.89   -2.89  O2
  Smithsonite      -1.64    -11.64  -10.00  ZnCO3
  Zn(OH)2(e)       -1.57      9.93   11.50  Zn(OH)2

**For a gas, SI = log10(fugacity). Fugacity = pressure * phi / 1 atm.
  For ideal gases, phi = 1.

------------------
End of simulation.
------------------

------------------------------------
Reading input data for simulation 4.
------------------------------------

