WARNING: Database file from DATABASE keyword is used; command line argument ignored.
   Input file: surf_related_warnings
  Output file: surf_related_warnings.out
Database file: ../database/phreeqc.dat

------------------
Reading data base.
------------------

	SOLUTION_MASTER_SPECIES
	SOLUTION_SPECIES
	PHASES
	GAS_BINARY_PARAMETERS
	EXCHANGE_MASTER_SPECIES
	EXCHANGE_SPECIES
	SURFACE_MASTER_SPECIES
	SURFACE_SPECIES
	MEAN_GAMMAS
	RATES
	END
------------------------------------
Reading input data for simulation 1.
------------------------------------

	DATABASE ../database/phreeqc.dat
	SELECTED_OUTPUT 101
	    file                 surf_related_warnings_101.sel
	USER_PUNCH 101
	    headings Mu SC
	    start
	10 PUNCH STR_F$(MU, 20, 12)
	20 PUNCH STR_F$(SC, 20, 10)
	    end
	EQUILIBRIUM_PHASES 1 
	 Goethite 0 .1 
	SOLUTION 1 
	 Na 1
	 Cl 1 
	SAVE solution 1
	USER_PRINT
	 10 print sys("Cl"), sys("H"), sys("H") - get(1)
	 20 put(sys("H"), 1)
	END
-------------------------------------------
Beginning of initial solution calculations.
-------------------------------------------

Initial solution 1.	

----------------------------------User print-----------------------------------

  1.0000e-03   1.1101e+02   1.1101e+02 

-----------------------------Solution composition------------------------------

	Elements           Molality       Moles

	Cl                1.000e-03   1.000e-03
	Na                1.000e-03   1.000e-03

----------------------------Description of solution----------------------------

                                       pH  =   7.000    
                                       pe  =   4.000    
      Specific Conductance (µS/cm,  25°C)  = 122
                          Density (g/cm³)  =   0.99708
                               Volume (L)  =   1.00298
                        Viscosity (mPa s)  =   0.89026
                        Activity of water  =   1.000
                 Ionic strength (mol/kgw)  =   1.000e-03
                       Mass of water (kg)  =   1.000e+00
                 Total alkalinity (eq/kg)  =   1.417e-09
                         Temperature (°C)  =  25.00
                  Electrical balance (eq)  =  -1.417e-09
 Percent error, 100*(Cat-|An|)/(Cat+|An|)  =  -0.00
                               Iterations  =   3
                                  Total H  = 1.110124e+02
                                  Total O  = 5.550622e+01

----------------------------Distribution of species----------------------------

                                               Log       Log       Log    mole V
   Species          Molality    Activity  Molality  Activity     Gamma   cm³/mol

   OH-             1.049e-07   1.012e-07    -6.979    -6.995    -0.016     -4.11
   H+              1.035e-07   1.000e-07    -6.985    -7.000    -0.015      0.00
   H2O             5.551e+01   1.000e+00     1.744    -0.000     0.000     18.07
Cl            1.000e-03
   Cl-             1.000e-03   9.649e-04    -3.000    -3.016    -0.016     18.07
   HCl             3.321e-11   3.324e-11   -10.479   -10.478     0.000     20.36
H(0)          1.416e-25
   H2              7.078e-26   7.079e-26   -25.150   -25.150     0.000     14.99
Na            1.000e-03
   Na+             1.000e-03   9.652e-04    -3.000    -3.015    -0.015     -1.48
O(0)          0.000e+00
   O2              0.000e+00   0.000e+00   -42.063   -42.063     0.000     30.40

------------------------------Saturation indices-------------------------------

  Phase               SI** log IAP   log K(298 K,   1 atm)

  H2(g)           -22.05    -25.15   -3.10  H2
  H2O(g)           -1.50     -0.00    1.50  H2O
  Halite           -7.60     -6.03    1.57  NaCl
  O2(g)           -39.17    -42.06   -2.89  O2

**For a gas, SI = log10(fugacity). Fugacity = pressure * phi / 1 atm.
  For ideal gases, phi = 1.

-----------------------------------------
Beginning of batch-reaction calculations.
-----------------------------------------

Reaction step 1.

Using solution 1.	
Using pure phase assemblage 1.	

----------------------------------User print-----------------------------------

  1.0000e-03   1.1111e+02   1.0000e-01 

-------------------------------Phase assemblage--------------------------------

                                                      Moles in assemblage
Phase               SI  log IAP  log K(T, P)   Initial       Final       Delta

Goethite         -0.00    -1.00     -1.00    1.000e-01   1.000e-01  -5.597e-14

-----------------------------Solution composition------------------------------

	Elements           Molality       Moles

	Cl                1.000e-03   1.000e-03
	Fe                5.597e-14   5.597e-14
	Na                1.000e-03   1.000e-03

----------------------------Description of solution----------------------------

                                       pH  =   7.000      Charge balance
                                       pe  =   5.303      Adjusted to redox equilibrium
      Specific Conductance (µS/cm,  25°C)  = 122
                          Density (g/cm³)  =   0.99708
                               Volume (L)  =   1.00298
                        Viscosity (mPa s)  =   0.89026
                        Activity of water  =   1.000
                 Ionic strength (mol/kgw)  =   1.000e-03
                       Mass of water (kg)  =   1.000e+00
                 Total alkalinity (eq/kg)  =   1.417e-09
                         Temperature (°C)  =  25.00
                  Electrical balance (eq)  =  -1.417e-09
 Percent error, 100*(Cat-|An|)/(Cat+|An|)  =  -0.00
                               Iterations  =  14
                                  Total H  = 1.110124e+02
                                  Total O  = 5.550622e+01

----------------------------Distribution of species----------------------------

                                               Log       Log       Log    mole V
   Species          Molality    Activity  Molality  Activity     Gamma   cm³/mol

   OH-             1.049e-07   1.012e-07    -6.979    -6.995    -0.016     -4.11
   H+              1.035e-07   1.000e-07    -6.985    -7.000    -0.015      0.00
   H2O             5.551e+01   1.000e+00     1.744    -0.000     0.000     18.07
Cl            1.000e-03
   Cl-             1.000e-03   9.649e-04    -3.000    -3.016    -0.016     18.07
   HCl             3.321e-11   3.324e-11   -10.479   -10.478     0.000     20.36
   FeCl+           7.202e-18   6.950e-18   -17.143   -17.158    -0.015     (0)  
   FeCl+2          3.356e-24   2.914e-24   -23.474   -23.535    -0.061     (0)  
   FeCl2+          1.301e-26   1.256e-26   -25.886   -25.901    -0.015     (0)  
   FeCl3           1.212e-30   1.212e-30   -29.917   -29.917     0.000     (0)  
Fe(2)         6.026e-15
   Fe+2            6.001e-15   5.218e-15   -14.222   -14.282    -0.061    -22.14
   FeOH+           1.709e-17   1.650e-17   -16.767   -16.782    -0.015     (0)  
   FeCl+           7.202e-18   6.950e-18   -17.143   -17.158    -0.015     (0)  
   Fe(OH)2         1.404e-21   1.404e-21   -20.853   -20.853     0.000     (0)  
   Fe(OH)3-        5.405e-25   5.218e-25   -24.267   -24.283    -0.015     (0)  
Fe(3)         4.995e-14
   Fe(OH)3         2.754e-14   2.754e-14   -13.560   -13.560     0.000     (0)  
   Fe(OH)2+        2.214e-14   2.138e-14   -13.655   -13.670    -0.015     (0)  
   Fe(OH)4-        2.602e-16   2.512e-16   -15.585   -15.600    -0.015     (0)  
   FeOH+2          7.436e-18   6.457e-18   -17.129   -17.190    -0.061     (0)  
   Fe+3            1.358e-22   1.000e-22   -21.867   -22.000    -0.133     (0)  
   FeCl+2          3.356e-24   2.914e-24   -23.474   -23.535    -0.061     (0)  
   FeCl2+          1.301e-26   1.256e-26   -25.886   -25.901    -0.015     (0)  
   FeCl3           1.212e-30   1.212e-30   -29.917   -29.917     0.000     (0)  
   Fe2(OH)2+4      1.985e-33   1.122e-33   -32.702   -32.950    -0.248     (0)  
   Fe3(OH)4+5      0.000e+00   0.000e+00   -43.913   -44.300    -0.387     (0)  
H(0)          3.515e-28
   H2              1.757e-28   1.758e-28   -27.755   -27.755     0.000     14.99
Na            1.000e-03
   Na+             1.000e-03   9.652e-04    -3.000    -3.015    -0.015     -1.48
O(0)          2.808e-37
   O2              1.404e-37   1.404e-37   -36.853   -36.853     0.000     30.40

------------------------------Saturation indices-------------------------------

  Phase               SI** log IAP   log K(298 K,   1 atm)

  Fe(OH)3(a)       -5.89     -1.00    4.89  Fe(OH)3
  Goethite         -0.00     -1.00   -1.00  FeOOH
  H2(g)           -24.66    -27.76   -3.10  H2
  H2O(g)           -1.50     -0.00    1.50  H2O
  Halite           -7.60     -6.03    1.57  NaCl
  Hematite          2.01     -2.00   -4.01  Fe2O3
  O2(g)           -33.96    -36.85   -2.89  O2

**For a gas, SI = log10(fugacity). Fugacity = pressure * phi / 1 atm.
  For ideal gases, phi = 1.

------------------
End of simulation.
------------------

------------------------------------
Reading input data for simulation 2.
------------------------------------

	SURFACE 1 
	 Hfo_wOH Goethite 1e-2 2e3 
	 donnan # can be added, wonderful! 
	 equilibrate 1
	END
------------------------------------------------------
Beginning of initial surface-composition calculations.
------------------------------------------------------

Surface 1.	

Diffuse Double Layer Surface-Complexation Model

Hfo           
	 -5.834e-15  Surface + diffuse layer charge, eq
	  1.234e-05  Surface charge, eq
	  5.953e-03  sigma, C/m²
	  6.430e-02  psi, V
	 -2.503e+00  -F*psi/RT
	  8.186e-02  exp(-F*psi/RT)
	  2.000e+03  specific area, m²/mol Goethite
	  2.000e+02  m² for   1.000e-01 moles of Goethite

	Water in diffuse layer: 2.000e-03 kg, 100.0% of total DDL-water.
		      viscosity: 0.00000 mPa s for DDL water.

	Total moles in diffuse layer (excluding water), Donnan calculation.
	Donnan Layer potential, psi_DL =  4.740e-02 V.
	Boltzmann factor, exp(-psi_DL * F / RT) = 1.581e-01 (= c_DL / c_free if z is +1).

	Element       	     Moles
	Cl            	  1.2654e-05
	Fe            	  6.5670e-17
	H             	  1.3602e-09
	Na            	  3.1611e-07
	O             	  1.3274e-09

Hfo_w         
	  1.000e-03  moles	[0.01 mol/(mol Goethite)]
	                                   Mole                     Log
	Species               Moles    Fraction    Molality    Molality

	Hfo_wOH           7.674e-04       0.767   7.674e-04      -3.115
	Hfo_wOH2+         1.225e-04       0.122   1.225e-04      -3.912
	Hfo_wO-           1.101e-04       0.110   1.101e-04      -3.958
	Hfo_wOFe+         3.432e-15       0.000   3.432e-15     -14.464
	Hfo_wOFeOH        1.129e-15       0.000   1.129e-15     -14.947

----------------------------------User print-----------------------------------

  1.0127e-03   1.1101e+02  -9.8988e-02 

------------------
End of simulation.
------------------

------------------------------------
Reading input data for simulation 3.
------------------------------------

	USE solution 1
	USE surface 1
	USE equilibrium_phases 1
	Reaction
		HCl 1
		5
	END 
-----------------------------------------
Beginning of batch-reaction calculations.
-----------------------------------------

Reaction step 1.

Using solution 1.	Solution after simulation 1.
Using surface 1.	
Using pure phase assemblage 1.	
Using reaction 1.	

Reaction 1.	

	  5.000e+00 moles of the following reaction have been added:

	                 Relative
	Reactant            moles

	HCl                  1.00000

	                 Relative
	Element             moles
	Cl                   1.00000
	H                    1.00000

----------------------------------User print-----------------------------------

  5.0010e+00   1.1611e+02   5.0990e+00 

-------------------------------Phase assemblage--------------------------------

                                                      Moles in assemblage
Phase               SI  log IAP  log K(T, P)   Initial       Final       Delta

Goethite         -5.16    -6.16     -1.00    1.000e-01           0  -1.000e-01

------------------------------Surface composition------------------------------

Diffuse Double Layer Surface-Complexation Model

Hfo           
	  3.635e-26  Surface + diffuse layer charge, eq
	  3.635e-26  Surface charge, eq
	undefined  sigma, C/m²
	  2.076e-02  psi, V
	 -8.079e-01  -F*psi/RT
	  4.458e-01  exp(-F*psi/RT)
	  2.000e+03  specific area, m²/mol Goethite
	  0.000e+00  m² for   0.000e+00 moles of Goethite

	Water in diffuse layer: 0.000e+00 kg,  0.0% of total DDL-water.

Hfo_w         
	  0.000e+00  moles	[0.01 mol/(mol Goethite)]
	                                   Mole                     Log
	Species               Moles    Fraction    Molality    Molality

	Hfo_wOH2+         3.635e-26       0.000   3.622e-26     -25.441
	Hfo_wOH           1.268e-33       0.000   1.263e-33     -32.899
	Hfo_wO-           1.013e-42       0.000   1.009e-42     -41.996
	Hfo_wOFe+         1.803e-48       0.000   1.797e-48     -47.745
	Hfo_wOFeOH        2.764e-57       0.000   2.754e-57     -56.560

-----------------------------Solution composition------------------------------

	Elements           Molality       Moles

	Cl                4.983e+00   5.001e+00
	Fe                9.964e-02   1.000e-01
	Na                9.967e-04   1.000e-03

----------------------------Description of solution----------------------------

                                       pH  =  -0.518      Charge balance
                                       pe  =  19.566      Adjusted to redox equilibrium
      Specific Conductance (µS/cm,  25°C)  = 799048
                          Density (g/cm³)  =   1.08032
                               Volume (L)  =   1.10268
                        Viscosity (mPa s)  =   1.13459
                        Activity of water  =   0.837
                 Ionic strength (mol/kgw)  =   4.812e+00
                       Mass of water (kg)  =   1.004e+00
                 Total alkalinity (eq/kg)  =  -4.882e+00
                         Temperature (°C)  =  25.00
                  Electrical balance (eq)  =  -1.416e-09
 Percent error, 100*(Cat-|An|)/(Cat+|An|)  =  -0.00
                               Iterations  =   1 (27 overall)
                                  Total H  = 1.161124e+02
                                  Total O  = 5.570622e+01

----------------------------Distribution of species----------------------------

                                               Log       Log       Log    mole V
   Species          Molality    Activity  Molality  Activity     Gamma   cm³/mol

   H+              4.654e+00   3.299e+00     0.668     0.518    -0.149      0.00
   OH-             5.339e-15   2.569e-15   -14.273   -14.590    -0.318      3.18
   H2O             5.551e+01   8.374e-01     1.744    -0.077     0.000     18.07
Cl            4.983e+00
   Cl-             4.781e+00   2.831e+00     0.680     0.452    -0.228     19.90
   FeCl2+          6.692e-02   3.824e-02    -1.174    -1.418    -0.243     (0)  
   HCl             2.881e-02   3.217e+00    -1.541     0.507     2.048     20.36
   FeCl+2          2.837e-02   3.024e-03    -1.547    -2.519    -0.972     (0)  
   FeCl3           3.574e-03   1.082e-02    -2.447    -1.966     0.481     (0)  
   FeCl+           1.616e-11   3.929e-11   -10.792   -10.406     0.386     (0)  
Fe(2)         8.582e-11
   Fe+2            6.967e-11   1.005e-11   -10.157   -10.998    -0.841    -18.17
   FeCl+           1.616e-11   3.929e-11   -10.792   -10.406     0.386     (0)  
   FeOH+           1.412e-21   8.071e-22   -20.850   -21.093    -0.243     (0)  
   Fe(OH)2         5.758e-34   1.744e-33   -33.240   -32.759     0.481     (0)  
   Fe(OH)3-        0.000e+00   0.000e+00   -43.541   -43.784    -0.243     (0)  
Fe(3)         9.964e-02
   FeCl2+          6.692e-02   3.824e-02    -1.174    -1.418    -0.243     (0)  
   FeCl+2          2.837e-02   3.024e-03    -1.547    -2.519    -0.972     (0)  
   FeCl3           3.574e-03   1.082e-02    -2.447    -1.966     0.481     (0)  
   Fe+3            7.831e-04   3.537e-05    -3.106    -4.451    -1.345     (0)  
   FeOH+2          5.438e-07   5.796e-08    -6.265    -7.237    -0.972     (0)  
   Fe(OH)2+        8.250e-12   4.872e-12   -11.084   -11.312    -0.229     (0)  
   Fe2(OH)2+4      6.040e-20   9.043e-14   -19.219   -13.044     6.175     (0)  
   Fe(OH)3         5.261e-20   1.593e-19   -19.279   -18.798     0.481     (0)  
   Fe(OH)4-        6.245e-29   3.688e-29   -28.204   -28.433    -0.229     (0)  
   Fe3(OH)4+5      2.066e-32   9.205e-23   -31.685   -22.036     9.649     (0)  
H(0)          0.000e+00
   H2              0.000e+00   0.000e+00   -41.751   -41.246     0.505     14.99
Na            9.967e-04
   Na+             9.967e-04   1.286e-03    -3.001    -2.891     0.111      0.98
O(0)          6.231e-11
   O2              3.116e-11   9.435e-11   -10.506   -10.025     0.481     30.40

------------------------------Saturation indices-------------------------------

  Phase               SI** log IAP   log K(298 K,   1 atm)

  Fe(OH)3(a)      -11.13     -6.24    4.89  Fe(OH)3
  Goethite         -5.16     -6.16   -1.00  FeOOH
  H2(g)           -38.15    -41.25   -3.10  H2
  H2O(g)           -1.58     -0.08    1.50  H2O
  Halite           -4.01     -2.44    1.57  NaCl
  Hematite         -8.24    -12.24   -4.01  Fe2O3
  O2(g)            -7.13    -10.03   -2.89  O2

**For a gas, SI = log10(fugacity). Fugacity = pressure * phi / 1 atm.
  For ideal gases, phi = 1.

------------------
End of simulation.
------------------

------------------------------------
Reading input data for simulation 4.
------------------------------------

	EQUILIBRIUM_PHASES 1 
	 Goethite 0 .1 
	SOLUTION 1 
	 Na 1
	 Cl 1 
	SAVE solution 1
	USER_PRINT
	 10 print sys("Cl"), sys("H"), sys("H") - get(1)
	 20 put(sys("H"), 1)
	END
-------------------------------------------
Beginning of initial solution calculations.
-------------------------------------------

Initial solution 1.	

----------------------------------User print-----------------------------------

  1.0000e-03   1.1101e+02  -5.1000e+00 

-----------------------------Solution composition------------------------------

	Elements           Molality       Moles

	Cl                1.000e-03   1.000e-03
	Na                1.000e-03   1.000e-03

----------------------------Description of solution----------------------------

                                       pH  =   7.000    
                                       pe  =   4.000    
      Specific Conductance (µS/cm,  25°C)  = 122
                          Density (g/cm³)  =   0.99708
                               Volume (L)  =   1.00298
                        Viscosity (mPa s)  =   0.89026
                        Activity of water  =   1.000
                 Ionic strength (mol/kgw)  =   1.000e-03
                       Mass of water (kg)  =   1.000e+00
                 Total alkalinity (eq/kg)  =   1.417e-09
                         Temperature (°C)  =  25.00
                  Electrical balance (eq)  =  -1.417e-09
 Percent error, 100*(Cat-|An|)/(Cat+|An|)  =  -0.00
                               Iterations  =   3
                                  Total H  = 1.110124e+02
                                  Total O  = 5.550622e+01

----------------------------Distribution of species----------------------------

                                               Log       Log       Log    mole V
   Species          Molality    Activity  Molality  Activity     Gamma   cm³/mol

   OH-             1.049e-07   1.012e-07    -6.979    -6.995    -0.016     -4.11
   H+              1.035e-07   1.000e-07    -6.985    -7.000    -0.015      0.00
   H2O             5.551e+01   1.000e+00     1.744    -0.000     0.000     18.07
Cl            1.000e-03
   Cl-             1.000e-03   9.649e-04    -3.000    -3.016    -0.016     18.07
   HCl             3.321e-11   3.324e-11   -10.479   -10.478     0.000     20.36
H(0)          1.416e-25
   H2              7.078e-26   7.079e-26   -25.150   -25.150     0.000     14.99
Na            1.000e-03
   Na+             1.000e-03   9.652e-04    -3.000    -3.015    -0.015     -1.48
O(0)          0.000e+00
   O2              0.000e+00   0.000e+00   -42.063   -42.063     0.000     30.40

------------------------------Saturation indices-------------------------------

  Phase               SI** log IAP   log K(298 K,   1 atm)

  H2(g)           -22.05    -25.15   -3.10  H2
  H2O(g)           -1.50     -0.00    1.50  H2O
  Halite           -7.60     -6.03    1.57  NaCl
  O2(g)           -39.17    -42.06   -2.89  O2

**For a gas, SI = log10(fugacity). Fugacity = pressure * phi / 1 atm.
  For ideal gases, phi = 1.

-----------------------------------------
Beginning of batch-reaction calculations.
-----------------------------------------

Reaction step 1.

Using solution 1.	
Using pure phase assemblage 1.	

----------------------------------User print-----------------------------------

  1.0000e-03   1.1111e+02   1.0000e-01 

-------------------------------Phase assemblage--------------------------------

                                                      Moles in assemblage
Phase               SI  log IAP  log K(T, P)   Initial       Final       Delta

Goethite         -0.00    -1.00     -1.00    1.000e-01   1.000e-01  -5.597e-14

-----------------------------Solution composition------------------------------

	Elements           Molality       Moles

	Cl                1.000e-03   1.000e-03
	Fe                5.597e-14   5.597e-14
	Na                1.000e-03   1.000e-03

----------------------------Description of solution----------------------------

                                       pH  =   7.000      Charge balance
                                       pe  =   5.303      Adjusted to redox equilibrium
      Specific Conductance (µS/cm,  25°C)  = 122
                          Density (g/cm³)  =   0.99708
                               Volume (L)  =   1.00298
                        Viscosity (mPa s)  =   0.89026
                        Activity of water  =   1.000
                 Ionic strength (mol/kgw)  =   1.000e-03
                       Mass of water (kg)  =   1.000e+00
                 Total alkalinity (eq/kg)  =   1.417e-09
                         Temperature (°C)  =  25.00
                  Electrical balance (eq)  =  -1.417e-09
 Percent error, 100*(Cat-|An|)/(Cat+|An|)  =  -0.00
                               Iterations  =  14
                                  Total H  = 1.110124e+02
                                  Total O  = 5.550622e+01

----------------------------Distribution of species----------------------------

                                               Log       Log       Log    mole V
   Species          Molality    Activity  Molality  Activity     Gamma   cm³/mol

   OH-             1.049e-07   1.012e-07    -6.979    -6.995    -0.016     -4.11
   H+              1.035e-07   1.000e-07    -6.985    -7.000    -0.015      0.00
   H2O             5.551e+01   1.000e+00     1.744    -0.000     0.000     18.07
Cl            1.000e-03
   Cl-             1.000e-03   9.649e-04    -3.000    -3.016    -0.016     18.07
   HCl             3.321e-11   3.324e-11   -10.479   -10.478     0.000     20.36
   FeCl+           7.202e-18   6.950e-18   -17.143   -17.158    -0.015     (0)  
   FeCl+2          3.356e-24   2.914e-24   -23.474   -23.535    -0.061     (0)  
   FeCl2+          1.301e-26   1.256e-26   -25.886   -25.901    -0.015     (0)  
   FeCl3           1.212e-30   1.212e-30   -29.917   -29.917     0.000     (0)  
Fe(2)         6.026e-15
   Fe+2            6.001e-15   5.218e-15   -14.222   -14.282    -0.061    -22.14
   FeOH+           1.709e-17   1.650e-17   -16.767   -16.782    -0.015     (0)  
   FeCl+           7.202e-18   6.950e-18   -17.143   -17.158    -0.015     (0)  
   Fe(OH)2         1.404e-21   1.404e-21   -20.853   -20.853     0.000     (0)  
   Fe(OH)3-        5.405e-25   5.218e-25   -24.267   -24.283    -0.015     (0)  
Fe(3)         4.995e-14
   Fe(OH)3         2.754e-14   2.754e-14   -13.560   -13.560     0.000     (0)  
   Fe(OH)2+        2.214e-14   2.138e-14   -13.655   -13.670    -0.015     (0)  
   Fe(OH)4-        2.602e-16   2.512e-16   -15.585   -15.600    -0.015     (0)  
   FeOH+2          7.436e-18   6.457e-18   -17.129   -17.190    -0.061     (0)  
   Fe+3            1.358e-22   1.000e-22   -21.867   -22.000    -0.133     (0)  
   FeCl+2          3.356e-24   2.914e-24   -23.474   -23.535    -0.061     (0)  
   FeCl2+          1.301e-26   1.256e-26   -25.886   -25.901    -0.015     (0)  
   FeCl3           1.212e-30   1.212e-30   -29.917   -29.917     0.000     (0)  
   Fe2(OH)2+4      1.985e-33   1.122e-33   -32.702   -32.950    -0.248     (0)  
   Fe3(OH)4+5      0.000e+00   0.000e+00   -43.913   -44.300    -0.387     (0)  
H(0)          3.515e-28
   H2              1.757e-28   1.758e-28   -27.755   -27.755     0.000     14.99
Na            1.000e-03
   Na+             1.000e-03   9.652e-04    -3.000    -3.015    -0.015     -1.48
O(0)          2.808e-37
   O2              1.404e-37   1.404e-37   -36.853   -36.853     0.000     30.40

------------------------------Saturation indices-------------------------------

  Phase               SI** log IAP   log K(298 K,   1 atm)

  Fe(OH)3(a)       -5.89     -1.00    4.89  Fe(OH)3
  Goethite         -0.00     -1.00   -1.00  FeOOH
  H2(g)           -24.66    -27.76   -3.10  H2
  H2O(g)           -1.50     -0.00    1.50  H2O
  Halite           -7.60     -6.03    1.57  NaCl
  Hematite          2.01     -2.00   -4.01  Fe2O3
  O2(g)           -33.96    -36.85   -2.89  O2

**For a gas, SI = log10(fugacity). Fugacity = pressure * phi / 1 atm.
  For ideal gases, phi = 1.

------------------
End of simulation.
------------------

------------------------------------
Reading input data for simulation 5.
------------------------------------

	SURFACE 1 
	 Hfo_w Goethite 1e-2 2e3 
	 donnan # can be added, wonderful! 
	 equilibrate 1
	END
------------------------------------------------------
Beginning of initial surface-composition calculations.
------------------------------------------------------

Surface 1.	

Diffuse Double Layer Surface-Complexation Model

Hfo           
	 -5.834e-15  Surface + diffuse layer charge, eq
	  1.234e-05  Surface charge, eq
	  5.953e-03  sigma, C/m²
	  6.430e-02  psi, V
	 -2.503e+00  -F*psi/RT
	  8.186e-02  exp(-F*psi/RT)
	  2.000e+03  specific area, m²/mol Goethite
	  2.000e+02  m² for   1.000e-01 moles of Goethite

	Water in diffuse layer: 2.000e-03 kg, 100.0% of total DDL-water.
		      viscosity: 0.00000 mPa s for DDL water.

	Total moles in diffuse layer (excluding water), Donnan calculation.
	Donnan Layer potential, psi_DL =  4.740e-02 V.
	Boltzmann factor, exp(-psi_DL * F / RT) = 1.581e-01 (= c_DL / c_free if z is +1).

	Element       	     Moles
	Cl            	  1.2654e-05
	Fe            	  6.5670e-17
	H             	  1.3602e-09
	Na            	  3.1611e-07
	O             	  1.3274e-09

Hfo_w         
	  1.000e-03  moles	[0.01 mol/(mol Goethite)]
	                                   Mole                     Log
	Species               Moles    Fraction    Molality    Molality

	Hfo_wOH           7.674e-04       0.767   7.674e-04      -3.115
	Hfo_wOH2+         1.225e-04       0.122   1.225e-04      -3.912
	Hfo_wO-           1.101e-04       0.110   1.101e-04      -3.958
	Hfo_wOFe+         3.432e-15       0.000   3.432e-15     -14.464
	Hfo_wOFeOH        1.129e-15       0.000   1.129e-15     -14.947

----------------------------------User print-----------------------------------

  1.0127e-03   1.1101e+02  -9.8988e-02 

------------------
End of simulation.
------------------

------------------------------------
Reading input data for simulation 6.
------------------------------------

	USE solution 1
	USE surface 1
	USE equilibrium_phases 1
	Reaction
		HCl 1
		5
	END 
-----------------------------------------
Beginning of batch-reaction calculations.
-----------------------------------------

Reaction step 1.

Using solution 1.	Solution after simulation 4.
Using surface 1.	
Using pure phase assemblage 1.	
Using reaction 1.	

Reaction 1.	

	  5.000e+00 moles of the following reaction have been added:

	                 Relative
	Reactant            moles

	HCl                  1.00000

	                 Relative
	Element             moles
	Cl                   1.00000
	H                    1.00000

----------------------------------User print-----------------------------------

  5.0010e+00   1.1611e+02   5.1000e+00 

-------------------------------Phase assemblage--------------------------------

                                                      Moles in assemblage
Phase               SI  log IAP  log K(T, P)   Initial       Final       Delta

Goethite         -5.16    -6.16     -1.00    1.000e-01           0  -1.000e-01

------------------------------Surface composition------------------------------

Diffuse Double Layer Surface-Complexation Model

Hfo           
	  3.544e-26  Surface + diffuse layer charge, eq
	  3.544e-26  Surface charge, eq
	undefined  sigma, C/m²
	  1.113e-01  psi, V
	 -4.332e+00  -F*psi/RT
	  1.313e-02  exp(-F*psi/RT)
	  2.000e+03  specific area, m²/mol Goethite
	  0.000e+00  m² for   0.000e+00 moles of Goethite

	Water in diffuse layer: 0.000e+00 kg,  0.0% of total DDL-water.

Hfo_w         
	  0.000e+00  moles	[0.01 mol/(mol Goethite)]
	                                   Mole                     Log
	Species               Moles    Fraction    Molality    Molality

	Hfo_wOH2+         3.544e-26       0.000   3.532e-26     -25.452
	Hfo_wOH           4.195e-32       0.000   4.180e-32     -31.379
	Hfo_wO-           1.137e-39       0.000   1.133e-39     -38.946
	Hfo_wOFe+         3.307e-50       0.000   3.295e-50     -49.482
	Hfo_wOFeOH        1.720e-57       0.000   1.714e-57     -56.766

-----------------------------Solution composition------------------------------

	Elements           Molality       Moles

	Cl                4.983e+00   5.001e+00
	Fe                9.964e-02   1.000e-01
	Na                9.967e-04   1.000e-03

----------------------------Description of solution----------------------------

                                       pH  =  -0.518      Charge balance
                                       pe  =  21.292      Adjusted to redox equilibrium
      Specific Conductance (µS/cm,  25°C)  = 799035
                          Density (g/cm³)  =   1.08032
                               Volume (L)  =   1.10270
                        Viscosity (mPa s)  =   1.13459
                        Activity of water  =   0.837
                 Ionic strength (mol/kgw)  =   4.812e+00
                       Mass of water (kg)  =   1.004e+00
                 Total alkalinity (eq/kg)  =  -4.882e+00
                         Temperature (°C)  =  25.00
                  Electrical balance (eq)  =  -1.417e-09
 Percent error, 100*(Cat-|An|)/(Cat+|An|)  =  -0.00
                               Iterations  =   1 (26 overall)
                                  Total H  = 1.161134e+02
                                  Total O  = 5.570722e+01

----------------------------Distribution of species----------------------------

                                               Log       Log       Log    mole V
   Species          Molality    Activity  Molality  Activity     Gamma   cm³/mol

   H+              4.654e+00   3.299e+00     0.668     0.518    -0.149      0.00
   OH-             5.339e-15   2.569e-15   -14.273   -14.590    -0.318      3.18
   H2O             5.551e+01   8.374e-01     1.744    -0.077     0.000     18.07
Cl            4.983e+00
   Cl-             4.781e+00   2.831e+00     0.680     0.452    -0.228     19.90
   FeCl2+          6.692e-02   3.824e-02    -1.174    -1.418    -0.243     (0)  
   HCl             2.881e-02   3.217e+00    -1.541     0.507     2.048     20.36
   FeCl+2          2.837e-02   3.024e-03    -1.547    -2.519    -0.972     (0)  
   FeCl3           3.574e-03   1.082e-02    -2.447    -1.966     0.481     (0)  
   FeCl+           3.038e-13   7.389e-13   -12.517   -12.131     0.386     (0)  
Fe(2)         1.614e-12
   Fe+2            1.310e-12   1.891e-13   -11.883   -12.723    -0.841    -18.17
   FeCl+           3.038e-13   7.389e-13   -12.517   -12.131     0.386     (0)  
   FeOH+           2.656e-23   1.518e-23   -22.576   -22.819    -0.243     (0)  
   Fe(OH)2         1.083e-35   3.279e-35   -34.965   -34.484     0.481     (0)  
   Fe(OH)3-        0.000e+00   0.000e+00   -45.267   -45.510    -0.243     (0)  
Fe(3)         9.964e-02
   FeCl2+          6.692e-02   3.824e-02    -1.174    -1.418    -0.243     (0)  
   FeCl+2          2.837e-02   3.024e-03    -1.547    -2.519    -0.972     (0)  
   FeCl3           3.574e-03   1.082e-02    -2.447    -1.966     0.481     (0)  
   Fe+3            7.831e-04   3.537e-05    -3.106    -4.451    -1.345     (0)  
   FeOH+2          5.438e-07   5.796e-08    -6.265    -7.237    -0.972     (0)  
   Fe(OH)2+        8.250e-12   4.872e-12   -11.084   -11.312    -0.229     (0)  
   Fe2(OH)2+4      6.042e-20   9.043e-14   -19.219   -13.044     6.175     (0)  
   Fe(OH)3         5.261e-20   1.593e-19   -19.279   -18.798     0.481     (0)  
   Fe(OH)4-        6.245e-29   3.688e-29   -28.204   -28.433    -0.229     (0)  
   Fe3(OH)4+5      2.067e-32   9.205e-23   -31.685   -22.036     9.649     (0)  
H(0)          0.000e+00
   H2              0.000e+00   0.000e+00   -45.202   -44.697     0.505     14.99
Na            9.967e-04
   Na+             9.967e-04   1.286e-03    -3.001    -2.891     0.111      0.98
O(0)          4.982e-04
   O2              2.491e-04   7.544e-04    -3.604    -3.122     0.481     30.40

------------------------------Saturation indices-------------------------------

  Phase               SI** log IAP   log K(298 K,   1 atm)

  Fe(OH)3(a)      -11.13     -6.24    4.89  Fe(OH)3
  Goethite         -5.16     -6.16   -1.00  FeOOH
  H2(g)           -41.60    -44.70   -3.10  H2
  H2O(g)           -1.58     -0.08    1.50  H2O
  Halite           -4.01     -2.44    1.57  NaCl
  Hematite         -8.24    -12.24   -4.01  Fe2O3
  O2(g)            -0.23     -3.12   -2.89  O2

**For a gas, SI = log10(fugacity). Fugacity = pressure * phi / 1 atm.
  For ideal gases, phi = 1.

------------------
End of simulation.
------------------

------------------------------------
Reading input data for simulation 7.
------------------------------------

	DELETE 
	-surface 1
	END
------------------
End of simulation.
------------------

------------------------------------
Reading input data for simulation 8.
------------------------------------

	EQUILIBRIUM_PHASES 1 
	 Hematite 0 .1 
	SOLUTION 1 
	 Na 1
	 Cl 1 
	SAVE solution 1
	USER_PRINT
	 10 print sys("Cl"), sys("H"), sys("H") - get(1)
	 20 put(sys("H"), 1)
	END
-------------------------------------------
Beginning of initial solution calculations.
-------------------------------------------

Initial solution 1.	

----------------------------------User print-----------------------------------

  1.0000e-03   1.1101e+02  -5.1010e+00 

-----------------------------Solution composition------------------------------

	Elements           Molality       Moles

	Cl                1.000e-03   1.000e-03
	Na                1.000e-03   1.000e-03

----------------------------Description of solution----------------------------

                                       pH  =   7.000    
                                       pe  =   4.000    
      Specific Conductance (µS/cm,  25°C)  = 122
                          Density (g/cm³)  =   0.99708
                               Volume (L)  =   1.00298
                        Viscosity (mPa s)  =   0.89026
                        Activity of water  =   1.000
                 Ionic strength (mol/kgw)  =   1.000e-03
                       Mass of water (kg)  =   1.000e+00
                 Total alkalinity (eq/kg)  =   1.417e-09
                         Temperature (°C)  =  25.00
                  Electrical balance (eq)  =  -1.417e-09
 Percent error, 100*(Cat-|An|)/(Cat+|An|)  =  -0.00
                               Iterations  =   3
                                  Total H  = 1.110124e+02
                                  Total O  = 5.550622e+01

----------------------------Distribution of species----------------------------

                                               Log       Log       Log    mole V
   Species          Molality    Activity  Molality  Activity     Gamma   cm³/mol

   OH-             1.049e-07   1.012e-07    -6.979    -6.995    -0.016     -4.11
   H+              1.035e-07   1.000e-07    -6.985    -7.000    -0.015      0.00
   H2O             5.551e+01   1.000e+00     1.744    -0.000     0.000     18.07
Cl            1.000e-03
   Cl-             1.000e-03   9.649e-04    -3.000    -3.016    -0.016     18.07
   HCl             3.321e-11   3.324e-11   -10.479   -10.478     0.000     20.36
H(0)          1.416e-25
   H2              7.078e-26   7.079e-26   -25.150   -25.150     0.000     14.99
Na            1.000e-03
   Na+             1.000e-03   9.652e-04    -3.000    -3.015    -0.015     -1.48
O(0)          0.000e+00
   O2              0.000e+00   0.000e+00   -42.063   -42.063     0.000     30.40

------------------------------Saturation indices-------------------------------

  Phase               SI** log IAP   log K(298 K,   1 atm)

  H2(g)           -22.05    -25.15   -3.10  H2
  H2O(g)           -1.50     -0.00    1.50  H2O
  Halite           -7.60     -6.03    1.57  NaCl
  O2(g)           -39.17    -42.06   -2.89  O2

**For a gas, SI = log10(fugacity). Fugacity = pressure * phi / 1 atm.
  For ideal gases, phi = 1.

-----------------------------------------
Beginning of batch-reaction calculations.
-----------------------------------------

Reaction step 1.

Using solution 1.	
Using pure phase assemblage 1.	

----------------------------------User print-----------------------------------

  1.0000e-03   1.1101e+02  -1.4211e-14 

-------------------------------Phase assemblage--------------------------------

                                                      Moles in assemblage
Phase               SI  log IAP  log K(T, P)   Initial       Final       Delta

Hematite          0.00    -4.01     -4.01    1.000e-01   1.000e-01  -2.466e-15

-----------------------------Solution composition------------------------------

	Elements           Molality       Moles

	Cl                1.000e-03   1.000e-03
	Fe                4.949e-15   4.949e-15
	Na                1.000e-03   1.000e-03

----------------------------Description of solution----------------------------

                                       pH  =   7.000      Charge balance
                                       pe  =  11.449      Adjusted to redox equilibrium
      Specific Conductance (µS/cm,  25°C)  = 122
                          Density (g/cm³)  =   0.99708
                               Volume (L)  =   1.00298
                        Viscosity (mPa s)  =   0.89026
                        Activity of water  =   1.000
                 Ionic strength (mol/kgw)  =   1.000e-03
                       Mass of water (kg)  =   1.000e+00
                 Total alkalinity (eq/kg)  =   1.417e-09
                         Temperature (°C)  =  25.00
                  Electrical balance (eq)  =  -1.417e-09
 Percent error, 100*(Cat-|An|)/(Cat+|An|)  =  -0.00
                               Iterations  =  40
                                  Total H  = 1.110124e+02
                                  Total O  = 5.550622e+01

----------------------------Distribution of species----------------------------

                                               Log       Log       Log    mole V
   Species          Molality    Activity  Molality  Activity     Gamma   cm³/mol

   OH-             1.049e-07   1.012e-07    -6.979    -6.995    -0.016     -4.11
   H+              1.035e-07   1.000e-07    -6.985    -7.000    -0.015      0.00
   H2O             5.551e+01   1.000e+00     1.744    -0.000     0.000     18.07
Cl            1.000e-03
   Cl-             1.000e-03   9.649e-04    -3.000    -3.016    -0.016     18.07
   HCl             3.321e-11   3.324e-11   -10.479   -10.478     0.000     20.36
   FeCl+           5.095e-25   4.916e-25   -24.293   -24.308    -0.015     (0)  
   FeCl+2          3.325e-25   2.887e-25   -24.478   -24.540    -0.061     (0)  
   FeCl2+          1.289e-27   1.244e-27   -26.890   -26.905    -0.015     (0)  
   FeCl3           1.200e-31   1.201e-31   -30.921   -30.921     0.000     (0)  
Fe(2)         4.262e-22
   Fe+2            4.245e-22   3.691e-22   -21.372   -21.433    -0.061    -22.14
   FeOH+           1.209e-24   1.167e-24   -23.918   -23.933    -0.015     (0)  
   FeCl+           5.095e-25   4.916e-25   -24.293   -24.308    -0.015     (0)  
   Fe(OH)2         9.932e-29   9.934e-29   -28.003   -28.003     0.000     (0)  
   Fe(OH)3-        3.823e-32   3.691e-32   -31.418   -31.433    -0.015     (0)  
Fe(3)         4.949e-15
   Fe(OH)3         2.728e-15   2.729e-15   -14.564   -14.564     0.000     (0)  
   Fe(OH)2+        2.194e-15   2.118e-15   -14.659   -14.674    -0.015     (0)  
   Fe(OH)4-        2.578e-17   2.489e-17   -16.589   -16.604    -0.015     (0)  
   FeOH+2          7.368e-19   6.397e-19   -18.133   -18.194    -0.061     (0)  
   Fe+3            1.345e-23   9.909e-24   -22.871   -23.004    -0.133     (0)  
   FeCl+2          3.325e-25   2.887e-25   -24.478   -24.540    -0.061     (0)  
   FeCl2+          1.289e-27   1.244e-27   -26.890   -26.905    -0.015     (0)  
   FeCl3           1.200e-31   1.201e-31   -30.921   -30.921     0.000     (0)  
   Fe2(OH)2+4      1.949e-35   1.102e-35   -34.710   -34.958    -0.248     (0)  
   Fe3(OH)4+5      0.000e+00   0.000e+00   -46.925   -47.312    -0.387     (0)  
H(0)          0.000e+00
   H2              0.000e+00   0.000e+00   -40.048   -40.048     0.000     14.99
Na            1.000e-03
   Na+             1.000e-03   9.652e-04    -3.000    -3.015    -0.015     -1.48
O(0)          1.081e-12
   O2              5.405e-13   5.406e-13   -12.267   -12.267     0.000     30.40

------------------------------Saturation indices-------------------------------

  Phase               SI** log IAP   log K(298 K,   1 atm)

  Fe(OH)3(a)       -6.90     -2.00    4.89  Fe(OH)3
  Goethite         -1.00     -2.00   -1.00  FeOOH
  H2(g)           -36.95    -40.05   -3.10  H2
  H2O(g)           -1.50     -0.00    1.50  H2O
  Halite           -7.60     -6.03    1.57  NaCl
  Hematite          0.00     -4.01   -4.01  Fe2O3
  O2(g)            -9.37    -12.27   -2.89  O2

**For a gas, SI = log10(fugacity). Fugacity = pressure * phi / 1 atm.
  For ideal gases, phi = 1.

------------------
End of simulation.
------------------

------------------------------------
Reading input data for simulation 9.
------------------------------------

	SURFACE 1 
	 Hfo_wOH Hematite 1e-2 2e3 
	 donnan # can be added, wonderful! 
	 equilibrate 1
	END
WARNING: Element H in sum of surface sites,
	 including Hfo_wOH * 0.01 mol sites/mol phase,
	 exceeds stoichiometry in the related phase Hematite, Fe2O3.
WARNING: The mismatch in stoichiometry may cause mass-balance errors or unwanted redox reactions.
------------------------------------------------------
Beginning of initial surface-composition calculations.
------------------------------------------------------

Surface 1.	

Diffuse Double Layer Surface-Complexation Model

Hfo           
	 -5.834e-15  Surface + diffuse layer charge, eq
	  1.234e-05  Surface charge, eq
	  5.953e-03  sigma, C/m²
	  6.430e-02  psi, V
	 -2.503e+00  -F*psi/RT
	  8.186e-02  exp(-F*psi/RT)
	  2.000e+03  specific area, m²/mol Hematite
	  2.000e+02  m² for   1.000e-01 moles of Hematite

	Water in diffuse layer: 2.000e-03 kg, 100.0% of total DDL-water.
		      viscosity: 0.00000 mPa s for DDL water.

	Total moles in diffuse layer (excluding water), Donnan calculation.
	Donnan Layer potential, psi_DL =  4.740e-02 V.
	Boltzmann factor, exp(-psi_DL * F / RT) = 1.581e-01 (= c_DL / c_free if z is +1).

	Element       	     Moles
	Cl            	  1.2654e-05
	Fe            	  6.4762e-18
	H             	  1.3602e-09
	Na            	  3.1611e-07
	O             	  1.3274e-09

Hfo_w         
	  1.000e-03  moles	[0.01 mol/(mol Hematite)]
	                                   Mole                     Log
	Species               Moles    Fraction    Molality    Molality

	Hfo_wOH           7.674e-04       0.767   7.674e-04      -3.115
	Hfo_wOH2+         1.225e-04       0.122   1.225e-04      -3.912
	Hfo_wO-           1.101e-04       0.110   1.101e-04      -3.958
	Hfo_wOFe+         2.428e-22       0.000   2.428e-22     -21.615
	Hfo_wOFeOH        7.983e-23       0.000   7.983e-23     -22.098

----------------------------------User print-----------------------------------

  1.0127e-03   1.1101e+02   1.0123e-03 

------------------
End of simulation.
------------------

-------------------------------------
Reading input data for simulation 10.
-------------------------------------

	USE solution 1
	USE surface 1
	USE equilibrium_phases 1
	Reaction
		HCl 1
		5
	END 
-----------------------------------------
Beginning of batch-reaction calculations.
-----------------------------------------

Reaction step 1.

Using solution 1.	Solution after simulation 8.
Using surface 1.	
Using pure phase assemblage 1.	
Using reaction 1.	

Reaction 1.	

	  5.000e+00 moles of the following reaction have been added:

	                 Relative
	Reactant            moles

	HCl                  1.00000

	                 Relative
	Element             moles
	Cl                   1.00000
	H                    1.00000

----------------------------------User print-----------------------------------

  5.0010e+00   1.1601e+02   4.9990e+00 

-------------------------------Phase assemblage--------------------------------

                                                      Moles in assemblage
Phase               SI  log IAP  log K(T, P)   Initial       Final       Delta

Hematite         -7.39   -11.39     -4.01    1.000e-01           0  -1.000e-01

------------------------------Surface composition------------------------------

Diffuse Double Layer Surface-Complexation Model

Hfo           
	  2.224e-25  Surface + diffuse layer charge, eq
	  2.224e-25  Surface charge, eq
	undefined  sigma, C/m²
	  1.239e-01  psi, V
	 -4.823e+00  -F*psi/RT
	  8.041e-03  exp(-F*psi/RT)
	  2.000e+03  specific area, m²/mol Hematite
	  0.000e+00  m² for   0.000e+00 moles of Hematite

	Water in diffuse layer: 0.000e+00 kg,  0.0% of total DDL-water.

Hfo_w         
	  0.000e+00  moles	[0.01 mol/(mol Hematite)]
	                                   Mole                     Log
	Species               Moles    Fraction    Molality    Molality

	Hfo_wOH2+         2.224e-25       0.000   2.212e-25     -24.655
	Hfo_wOH           4.600e-31       0.000   4.576e-31     -30.340
	Hfo_wO-           2.180e-38       0.000   2.169e-38     -37.664
	Hfo_wOFe+         2.671e-47       0.000   2.657e-47     -46.576
	Hfo_wOFeOH        2.448e-54       0.000   2.435e-54     -53.614

-----------------------------Solution composition------------------------------

	Elements           Molality       Moles

	Cl                4.974e+00   5.001e+00
	Fe                1.989e-01   2.000e-01
	Na                9.949e-04   1.000e-03

----------------------------Description of solution----------------------------

                                       pH  =  -0.489      Charge balance
                                       pe  =  19.573      Adjusted to redox equilibrium
      Specific Conductance (µS/cm,  25°C)  = 772217
                          Density (g/cm³)  =   1.08845
                               Volume (L)  =   1.10095
                        Viscosity (mPa s)  =   1.11883
                        Activity of water  =   0.844
                 Ionic strength (mol/kgw)  =   4.664e+00
                       Mass of water (kg)  =   1.005e+00
                 Total alkalinity (eq/kg)  =  -4.774e+00
                         Temperature (°C)  =  25.00
                  Electrical balance (eq)  =  -1.417e-09
 Percent error, 100*(Cat-|An|)/(Cat+|An|)  =  -0.00
                               Iterations  =   1 (15 overall)
                                  Total H  = 1.160124e+02
                                  Total O  = 5.580622e+01

----------------------------Distribution of species----------------------------

                                               Log       Log       Log    mole V
   Species          Molality    Activity  Molality  Activity     Gamma   cm³/mol

   H+              4.346e+00   3.083e+00     0.638     0.489    -0.149      0.00
   OH-             5.739e-15   2.771e-15   -14.241   -14.557    -0.316      2.98
   H2O             5.551e+01   8.440e-01     1.744    -0.074     0.000     18.07
Cl            4.974e+00
   Cl-             4.601e+00   2.717e+00     0.663     0.434    -0.229     19.88
   FeCl2+          1.322e-01   7.567e-02    -0.879    -1.121    -0.242     (0)  
   FeCl+2          5.805e-02   6.236e-03    -1.236    -2.205    -0.969     (0)  
   HCl             2.987e-02   2.885e+00    -1.525     0.460     1.985     20.36
   FeCl3           7.024e-03   2.056e-02    -2.153    -1.687     0.466     (0)  
   FeCl+           3.441e-11   7.974e-11   -10.463   -10.098     0.365     (0)  
Fe(2)         1.809e-10
   Fe+2            1.465e-10   2.126e-11    -9.834   -10.672    -0.838    -18.26
   FeCl+           3.441e-11   7.974e-11   -10.463   -10.098     0.365     (0)  
   FeOH+           3.215e-21   1.841e-21   -20.493   -20.735    -0.242     (0)  
   Fe(OH)2         1.465e-33   4.289e-33   -32.834   -32.368     0.466     (0)  
   Fe(OH)3-        0.000e+00   0.000e+00   -43.118   -43.360    -0.242     (0)  
Fe(3)         1.989e-01
   FeCl2+          1.322e-01   7.567e-02    -0.879    -1.121    -0.242     (0)  
   FeCl+2          5.805e-02   6.236e-03    -1.236    -2.205    -0.969     (0)  
   FeCl3           7.024e-03   2.056e-02    -2.153    -1.687     0.466     (0)  
   Fe+3            1.672e-03   7.601e-05    -2.777    -4.119    -1.342     (0)  
   FeOH+2          1.251e-06   1.343e-07    -5.903    -6.872    -0.969     (0)  
   Fe(OH)2+        2.059e-11   1.218e-11   -10.686   -10.914    -0.228     (0)  
   Fe2(OH)2+4      7.021e-19   4.857e-13   -18.154   -12.314     5.840     (0)  
   Fe(OH)3         1.467e-19   4.294e-19   -18.833   -18.367     0.466     (0)  
   Fe(OH)4-        1.812e-28   1.072e-28   -27.742   -27.970    -0.228     (0)  
   Fe3(OH)4+5      9.267e-31   1.236e-21   -30.033   -20.908     9.125     (0)  
H(0)          0.000e+00
   H2              0.000e+00   0.000e+00   -41.808   -41.318     0.490     14.99
Na            9.949e-04
   Na+             9.949e-04   1.251e-03    -3.002    -2.903     0.100      0.94
O(0)          9.154e-11
   O2              4.577e-11   1.340e-10   -10.339    -9.873     0.466     30.40

------------------------------Saturation indices-------------------------------

  Phase               SI** log IAP   log K(298 K,   1 atm)

  Fe(OH)3(a)      -10.70     -5.81    4.89  Fe(OH)3
  Goethite         -4.73     -5.73   -1.00  FeOOH
  H2(g)           -38.22    -41.32   -3.10  H2
  H2O(g)           -1.58     -0.07    1.50  H2O
  Halite           -4.04     -2.47    1.57  NaCl
  Hematite         -7.39    -11.39   -4.01  Fe2O3
  O2(g)            -6.98     -9.87   -2.89  O2

**For a gas, SI = log10(fugacity). Fugacity = pressure * phi / 1 atm.
  For ideal gases, phi = 1.

------------------
End of simulation.
------------------

-------------------------------------
Reading input data for simulation 11.
-------------------------------------

	SURFACE_MASTER_SPECIES
	Hfo_s Hfo_sO-
	SURFACE_SPECIES
	Hfo_sO- = Hfo_sO-
	log_k 0
	Hfo_sO- + H+ = Hfo_sOH
	log_k -100
	END
------------------
End of simulation.
------------------

-------------------------------------
Reading input data for simulation 12.
-------------------------------------

	DELETE 
	-surface 1
	END
------------------
End of simulation.
------------------

-------------------------------------
Reading input data for simulation 13.
-------------------------------------

	EQUILIBRIUM_PHASES 1 
	 Goethite 0 .1 
	SOLUTION 1 
	 Na 1
	 Cl 1 
	SAVE solution 1
	USER_PRINT
	 10 print sys("Cl"), sys("H"), sys("H") - get(1)
	 20 put(sys("H"), 1)
	END
-------------------------------------------
Beginning of initial solution calculations.
-------------------------------------------

Initial solution 1.	

----------------------------------User print-----------------------------------

  1.0000e-03   1.1101e+02  -5.0000e+00 

-----------------------------Solution composition------------------------------

	Elements           Molality       Moles

	Cl                1.000e-03   1.000e-03
	Na                1.000e-03   1.000e-03

----------------------------Description of solution----------------------------

                                       pH  =   7.000    
                                       pe  =   4.000    
      Specific Conductance (µS/cm,  25°C)  = 122
                          Density (g/cm³)  =   0.99708
                               Volume (L)  =   1.00298
                        Viscosity (mPa s)  =   0.89026
                        Activity of water  =   1.000
                 Ionic strength (mol/kgw)  =   1.000e-03
                       Mass of water (kg)  =   1.000e+00
                 Total alkalinity (eq/kg)  =   1.417e-09
                         Temperature (°C)  =  25.00
                  Electrical balance (eq)  =  -1.417e-09
 Percent error, 100*(Cat-|An|)/(Cat+|An|)  =  -0.00
                               Iterations  =   3
                                  Total H  = 1.110124e+02
                                  Total O  = 5.550622e+01

----------------------------Distribution of species----------------------------

                                               Log       Log       Log    mole V
   Species          Molality    Activity  Molality  Activity     Gamma   cm³/mol

   OH-             1.049e-07   1.012e-07    -6.979    -6.995    -0.016     -4.11
   H+              1.035e-07   1.000e-07    -6.985    -7.000    -0.015      0.00
   H2O             5.551e+01   1.000e+00     1.744    -0.000     0.000     18.07
Cl            1.000e-03
   Cl-             1.000e-03   9.649e-04    -3.000    -3.016    -0.016     18.07
   HCl             3.321e-11   3.324e-11   -10.479   -10.478     0.000     20.36
H(0)          1.416e-25
   H2              7.078e-26   7.079e-26   -25.150   -25.150     0.000     14.99
Na            1.000e-03
   Na+             1.000e-03   9.652e-04    -3.000    -3.015    -0.015     -1.48
O(0)          0.000e+00
   O2              0.000e+00   0.000e+00   -42.063   -42.063     0.000     30.40

------------------------------Saturation indices-------------------------------

  Phase               SI** log IAP   log K(298 K,   1 atm)

  H2(g)           -22.05    -25.15   -3.10  H2
  H2O(g)           -1.50     -0.00    1.50  H2O
  Halite           -7.60     -6.03    1.57  NaCl
  O2(g)           -39.17    -42.06   -2.89  O2

**For a gas, SI = log10(fugacity). Fugacity = pressure * phi / 1 atm.
  For ideal gases, phi = 1.

-----------------------------------------
Beginning of batch-reaction calculations.
-----------------------------------------

Reaction step 1.

Using solution 1.	
Using pure phase assemblage 1.	

----------------------------------User print-----------------------------------

  1.0000e-03   1.1111e+02   1.0000e-01 

-------------------------------Phase assemblage--------------------------------

                                                      Moles in assemblage
Phase               SI  log IAP  log K(T, P)   Initial       Final       Delta

Goethite         -0.00    -1.00     -1.00    1.000e-01   1.000e-01  -5.597e-14

-----------------------------Solution composition------------------------------

	Elements           Molality       Moles

	Cl                1.000e-03   1.000e-03
	Fe                5.597e-14   5.597e-14
	Na                1.000e-03   1.000e-03

----------------------------Description of solution----------------------------

                                       pH  =   7.000      Charge balance
                                       pe  =   5.303      Adjusted to redox equilibrium
      Specific Conductance (µS/cm,  25°C)  = 122
                          Density (g/cm³)  =   0.99708
                               Volume (L)  =   1.00298
                        Viscosity (mPa s)  =   0.89026
                        Activity of water  =   1.000
                 Ionic strength (mol/kgw)  =   1.000e-03
                       Mass of water (kg)  =   1.000e+00
                 Total alkalinity (eq/kg)  =   1.417e-09
                         Temperature (°C)  =  25.00
                  Electrical balance (eq)  =  -1.417e-09
 Percent error, 100*(Cat-|An|)/(Cat+|An|)  =  -0.00
                               Iterations  =  14
                                  Total H  = 1.110124e+02
                                  Total O  = 5.550622e+01

----------------------------Distribution of species----------------------------

                                               Log       Log       Log    mole V
   Species          Molality    Activity  Molality  Activity     Gamma   cm³/mol

   OH-             1.049e-07   1.012e-07    -6.979    -6.995    -0.016     -4.11
   H+              1.035e-07   1.000e-07    -6.985    -7.000    -0.015      0.00
   H2O             5.551e+01   1.000e+00     1.744    -0.000     0.000     18.07
Cl            1.000e-03
   Cl-             1.000e-03   9.649e-04    -3.000    -3.016    -0.016     18.07
   HCl             3.321e-11   3.324e-11   -10.479   -10.478     0.000     20.36
   FeCl+           7.202e-18   6.950e-18   -17.143   -17.158    -0.015     (0)  
   FeCl+2          3.356e-24   2.914e-24   -23.474   -23.535    -0.061     (0)  
   FeCl2+          1.301e-26   1.256e-26   -25.886   -25.901    -0.015     (0)  
   FeCl3           1.212e-30   1.212e-30   -29.917   -29.917     0.000     (0)  
Fe(2)         6.026e-15
   Fe+2            6.001e-15   5.218e-15   -14.222   -14.282    -0.061    -22.14
   FeOH+           1.709e-17   1.650e-17   -16.767   -16.782    -0.015     (0)  
   FeCl+           7.202e-18   6.950e-18   -17.143   -17.158    -0.015     (0)  
   Fe(OH)2         1.404e-21   1.404e-21   -20.853   -20.853     0.000     (0)  
   Fe(OH)3-        5.405e-25   5.218e-25   -24.267   -24.283    -0.015     (0)  
Fe(3)         4.995e-14
   Fe(OH)3         2.754e-14   2.754e-14   -13.560   -13.560     0.000     (0)  
   Fe(OH)2+        2.214e-14   2.138e-14   -13.655   -13.670    -0.015     (0)  
   Fe(OH)4-        2.602e-16   2.512e-16   -15.585   -15.600    -0.015     (0)  
   FeOH+2          7.436e-18   6.457e-18   -17.129   -17.190    -0.061     (0)  
   Fe+3            1.358e-22   1.000e-22   -21.867   -22.000    -0.133     (0)  
   FeCl+2          3.356e-24   2.914e-24   -23.474   -23.535    -0.061     (0)  
   FeCl2+          1.301e-26   1.256e-26   -25.886   -25.901    -0.015     (0)  
   FeCl3           1.212e-30   1.212e-30   -29.917   -29.917     0.000     (0)  
   Fe2(OH)2+4      1.985e-33   1.122e-33   -32.702   -32.950    -0.248     (0)  
   Fe3(OH)4+5      0.000e+00   0.000e+00   -43.913   -44.300    -0.387     (0)  
H(0)          3.515e-28
   H2              1.757e-28   1.758e-28   -27.755   -27.755     0.000     14.99
Na            1.000e-03
   Na+             1.000e-03   9.652e-04    -3.000    -3.015    -0.015     -1.48
O(0)          2.808e-37
   O2              1.404e-37   1.404e-37   -36.853   -36.853     0.000     30.40

------------------------------Saturation indices-------------------------------

  Phase               SI** log IAP   log K(298 K,   1 atm)

  Fe(OH)3(a)       -5.89     -1.00    4.89  Fe(OH)3
  Goethite         -0.00     -1.00   -1.00  FeOOH
  H2(g)           -24.66    -27.76   -3.10  H2
  H2O(g)           -1.50     -0.00    1.50  H2O
  Halite           -7.60     -6.03    1.57  NaCl
  Hematite          2.01     -2.00   -4.01  Fe2O3
  O2(g)           -33.96    -36.85   -2.89  O2

**For a gas, SI = log10(fugacity). Fugacity = pressure * phi / 1 atm.
  For ideal gases, phi = 1.

------------------
End of simulation.
------------------

-------------------------------------
Reading input data for simulation 14.
-------------------------------------

	SURFACE 1 
	 Hfo_sO- Goethite 1e-2 2e3 
	 donnan # can be added, wonderful! 
	 equilibrate 1
	END
------------------------------------------------------
Beginning of initial surface-composition calculations.
------------------------------------------------------

Surface 1.	

Diffuse Double Layer Surface-Complexation Model

Hfo           
	  8.710e-10  Surface + diffuse layer charge, eq
	 -1.000e-03  Surface charge, eq
	 -4.825e-01  sigma, C/m²
	 -2.857e-01  psi, V
	  1.112e+01  -F*psi/RT
	  6.764e+04  exp(-F*psi/RT)
	  2.000e+03  specific area, m²/mol Goethite
	  2.000e+02  m² for   1.000e-01 moles of Goethite

	Water in diffuse layer: 2.000e-03 kg, 100.0% of total DDL-water.
		      viscosity: 0.00000 mPa s for DDL water.

	Total moles in diffuse layer (excluding water), Donnan calculation.
	Donnan Layer potential, psi_DL = -1.597e-01 V.
	Boltzmann factor, exp(-psi_DL * F / RT) = 5.000e+02 (= c_DL / c_free if z is +1).

	Element       	     Moles
	Cl            	  4.0005e-09
	Fe            	  3.0261e-12
	H             	  1.0345e-07
	Na            	  9.9990e-04
	O             	  4.6785e-13

Hfo_s         
	  1.000e-03  moles	[0.01 mol/(mol Goethite)]
	                                   Mole                     Log
	Species               Moles    Fraction    Molality    Molality

	Hfo_sO-           1.000e-03       1.000   1.000e-03      -3.000
	Hfo_sOH2+        8.922e-101       0.000  8.922e-101    -100.050
	Hfo_sOH          6.764e-106       0.000  6.764e-106    -105.170
	Hfo_sOFe+        2.679e-109       0.000  2.679e-109    -108.572

----------------------------------User print-----------------------------------

  1.0000e-03   1.1101e+02  -1.0000e-01 

------------------
End of simulation.
------------------

-------------------------------------
Reading input data for simulation 15.
-------------------------------------

	USE solution 1
	USE surface 1
	USE equilibrium_phases 1
	Reaction
		HCl 1
		5
	END 
-----------------------------------------
Beginning of batch-reaction calculations.
-----------------------------------------

Reaction step 1.

Using solution 1.	Solution after simulation 13.
Using surface 1.	
Using pure phase assemblage 1.	
Using reaction 1.	

Reaction 1.	

	  5.000e+00 moles of the following reaction have been added:

	                 Relative
	Reactant            moles

	HCl                  1.00000

	                 Relative
	Element             moles
	Cl                   1.00000
	H                    1.00000

----------------------------------User print-----------------------------------

  5.0010e+00   1.1611e+02   5.1000e+00 

-------------------------------Phase assemblage--------------------------------

                                                      Moles in assemblage
Phase               SI  log IAP  log K(T, P)   Initial       Final       Delta

Goethite         -5.16    -6.16     -1.00    1.000e-01           0  -1.000e-01

------------------------------Surface composition------------------------------

Diffuse Double Layer Surface-Complexation Model

Hfo           
	 -3.576e-26  Surface + diffuse layer charge, eq
	 -3.576e-26  Surface charge, eq
	undefined  sigma, C/m²
	  1.725e-02  psi, V
	 -6.715e-01  -F*psi/RT
	  5.109e-01  exp(-F*psi/RT)
	  2.000e+03  specific area, m²/mol Goethite
	  0.000e+00  m² for   0.000e+00 moles of Goethite

	Water in diffuse layer: 0.000e+00 kg,  0.0% of total DDL-water.

Hfo_s         
	  0.000e+00  moles	[0.01 mol/(mol Goethite)]
	                                   Mole                     Log
	Species               Moles    Fraction    Molality    Molality

	Hfo_sO-           3.576e-26       0.000   3.563e-26     -25.448
	Hfo_sOH2+        1.981e-118       0.000  1.974e-118    -117.705
	Hfo_sOH          6.027e-126       0.000  6.005e-126    -125.221
	Hfo_sOFe+        1.119e-138       0.000  1.115e-138    -137.953

-----------------------------Solution composition------------------------------

	Elements           Molality       Moles

	Cl                4.983e+00   5.001e+00
	Fe                9.964e-02   1.000e-01
	Na                1.993e-03   2.000e-03

----------------------------Description of solution----------------------------

                                       pH  =  -0.518      Charge balance
                                       pe  =  19.540      Adjusted to redox equilibrium
      Specific Conductance (µS/cm,  25°C)  = 799000
                          Density (g/cm³)  =   1.08034
                               Volume (L)  =   1.10269
                        Viscosity (mPa s)  =   1.13470
                        Activity of water  =   0.837
                 Ionic strength (mol/kgw)  =   4.813e+00
                       Mass of water (kg)  =   1.004e+00
                 Total alkalinity (eq/kg)  =  -4.882e+00
                         Temperature (°C)  =  25.00
                  Electrical balance (eq)  =   1.000e-03
 Percent error, 100*(Cat-|An|)/(Cat+|An|)  =   0.01
                               Iterations  =   1 (20 overall)
                                  Total H  = 1.161124e+02
                                  Total O  = 5.570622e+01

----------------------------Distribution of species----------------------------

                                               Log       Log       Log    mole V
   Species          Molality    Activity  Molality  Activity     Gamma   cm³/mol

   H+              4.654e+00   3.299e+00     0.668     0.518    -0.149      0.00
   OH-             5.339e-15   2.569e-15   -14.273   -14.590    -0.318      3.18
   H2O             5.551e+01   8.374e-01     1.744    -0.077     0.000     18.07
Cl            4.983e+00
   Cl-             4.781e+00   2.831e+00     0.680     0.452    -0.228     19.90
   FeCl2+          6.692e-02   3.824e-02    -1.174    -1.418    -0.243     (0)  
   HCl             2.879e-02   3.217e+00    -1.541     0.507     2.048     20.36
   FeCl+2          2.837e-02   3.024e-03    -1.547    -2.519    -0.972     (0)  
   FeCl3           3.574e-03   1.082e-02    -2.447    -1.966     0.481     (0)  
   FeCl+           1.716e-11   4.175e-11   -10.765   -10.379     0.386     (0)  
Fe(2)         9.119e-11
   Fe+2            7.402e-11   1.068e-11   -10.131   -10.971    -0.841    -18.17
   FeCl+           1.716e-11   4.175e-11   -10.765   -10.379     0.386     (0)  
   FeOH+           1.501e-21   8.575e-22   -20.824   -21.067    -0.243     (0)  
   Fe(OH)2         6.117e-34   1.853e-33   -33.213   -32.732     0.481     (0)  
   Fe(OH)3-        0.000e+00   0.000e+00   -43.515   -43.758    -0.243     (0)  
Fe(3)         9.964e-02
   FeCl2+          6.692e-02   3.824e-02    -1.174    -1.418    -0.243     (0)  
   FeCl+2          2.837e-02   3.024e-03    -1.547    -2.519    -0.972     (0)  
   FeCl3           3.574e-03   1.082e-02    -2.447    -1.966     0.481     (0)  
   Fe+3            7.831e-04   3.537e-05    -3.106    -4.451    -1.345     (0)  
   FeOH+2          5.438e-07   5.796e-08    -6.265    -7.237    -0.972     (0)  
   Fe(OH)2+        8.249e-12   4.872e-12   -11.084   -11.312    -0.229     (0)  
   Fe2(OH)2+4      6.024e-20   9.042e-14   -19.220   -13.044     6.176     (0)  
   Fe(OH)3         5.260e-20   1.593e-19   -19.279   -18.798     0.481     (0)  
   Fe(OH)4-        6.244e-29   3.688e-29   -28.205   -28.433    -0.229     (0)  
   Fe3(OH)4+5      2.057e-32   9.204e-23   -31.687   -22.036     9.651     (0)  
H(0)          0.000e+00
   H2              0.000e+00   0.000e+00   -41.698   -41.193     0.505     14.99
Na            1.993e-03
   Na+             1.993e-03   2.571e-03    -2.701    -2.590     0.111      0.98
O(0)          4.888e-11
   O2              2.444e-11   7.402e-11   -10.612   -10.131     0.481     30.40

------------------------------Saturation indices-------------------------------

  Phase               SI** log IAP   log K(298 K,   1 atm)

  Fe(OH)3(a)      -11.13     -6.24    4.89  Fe(OH)3
  Goethite         -5.16     -6.16   -1.00  FeOOH
  H2(g)           -38.09    -41.19   -3.10  H2
  H2O(g)           -1.58     -0.08    1.50  H2O
  Halite           -3.71     -2.14    1.57  NaCl
  Hematite         -8.24    -12.24   -4.01  Fe2O3
  O2(g)            -7.24    -10.13   -2.89  O2

**For a gas, SI = log10(fugacity). Fugacity = pressure * phi / 1 atm.
  For ideal gases, phi = 1.

------------------
End of simulation.
------------------

-------------------------------------
Reading input data for simulation 16.
-------------------------------------

	EQUILIBRIUM_PHASES 1 
	 Goethite 0 .1 
	SOLUTION 1 
	 Na 1
	 Br 1
	 Cl 1e-6 
	SAVE solution 1
	USER_PRINT
	 10 print sys("Cl"), sys("H"), sys("H") - get(1)
	 20 put(sys("H"), 1)
	END
-------------------------------------------
Beginning of initial solution calculations.
-------------------------------------------

Initial solution 1.	

----------------------------------User print-----------------------------------

  1.0000e-09   1.1101e+02  -5.1000e+00 

-----------------------------Solution composition------------------------------

	Elements           Molality       Moles

	Br                1.000e-03   1.000e-03
	Cl                1.000e-09   1.000e-09
	Na                1.000e-03   1.000e-03

----------------------------Description of solution----------------------------

                                       pH  =   7.000    
                                       pe  =   4.000    
      Specific Conductance (µS/cm,  25°C)  = 125
                          Density (g/cm³)  =   0.99712
                               Volume (L)  =   1.00299
                        Viscosity (mPa s)  =   0.89021
                        Activity of water  =   1.000
                 Ionic strength (mol/kgw)  =   1.000e-03
                       Mass of water (kg)  =   1.000e+00
                 Total alkalinity (eq/kg)  =   1.451e-09
                         Temperature (°C)  =  25.00
                  Electrical balance (eq)  =  -2.451e-09
 Percent error, 100*(Cat-|An|)/(Cat+|An|)  =  -0.00
                               Iterations  =   3
                                  Total H  = 1.110124e+02
                                  Total O  = 5.550622e+01

----------------------------Distribution of species----------------------------

                                               Log       Log       Log    mole V
   Species          Molality    Activity  Molality  Activity     Gamma   cm³/mol

   OH-             1.049e-07   1.012e-07    -6.979    -6.995    -0.016     -4.11
   H+              1.035e-07   1.000e-07    -6.985    -7.000    -0.015      0.00
   H2O             5.551e+01   1.000e+00     1.744    -0.000     0.000     18.07
Br            1.000e-03
   Br-             1.000e-03   9.647e-04    -3.000    -3.016    -0.016     24.56
Cl            1.000e-09
   Cl-             1.000e-09   9.649e-10    -9.000    -9.016    -0.016     18.07
   HCl             3.321e-17   3.324e-17   -16.479   -16.478     0.000     20.36
H(0)          1.416e-25
   H2              7.078e-26   7.079e-26   -25.150   -25.150     0.000     14.99
Na            1.000e-03
   Na+             1.000e-03   9.652e-04    -3.000    -3.015    -0.015     -1.48
O(0)          0.000e+00
   O2              0.000e+00   0.000e+00   -42.063   -42.063     0.000     30.40

------------------------------Saturation indices-------------------------------

  Phase               SI** log IAP   log K(298 K,   1 atm)

  H2(g)           -22.05    -25.15   -3.10  H2
  H2O(g)           -1.50     -0.00    1.50  H2O
  Halite          -13.60    -12.03    1.57  NaCl
  O2(g)           -39.17    -42.06   -2.89  O2

**For a gas, SI = log10(fugacity). Fugacity = pressure * phi / 1 atm.
  For ideal gases, phi = 1.

-----------------------------------------
Beginning of batch-reaction calculations.
-----------------------------------------

Reaction step 1.

WARNING: Maximum iterations exceeded, 100

WARNING: Numerical method failed with this set of convergence parameters.

WARNING: Trying smaller step size, pe step size 10, 5 ... 

WARNING: Maximum iterations exceeded, 200

WARNING: Numerical method failed with this set of convergence parameters.

WARNING: Trying reduced tolerance 1e-16 ...

Using solution 1.	
Using pure phase assemblage 1.	

----------------------------------User print-----------------------------------

  1.0000e-09   1.1111e+02   1.0000e-01 

-------------------------------Phase assemblage--------------------------------

                                                      Moles in assemblage
Phase               SI  log IAP  log K(T, P)   Initial       Final       Delta

Goethite         -0.00    -1.00     -1.00    1.000e-01   1.000e-01   9.995e-11

-----------------------------Solution composition------------------------------

	Elements           Molality       Moles

	Br                1.000e-03   1.000e-03
	Cl                1.000e-09   1.000e-09
	Fe                5.138e-14   5.138e-14
	Na                1.000e-03   1.000e-03

----------------------------Description of solution----------------------------

                                       pH  =   7.000      Charge balance
                                       pe  =   5.925      Adjusted to redox equilibrium
      Specific Conductance (µS/cm,  25°C)  = 125
                          Density (g/cm³)  =   0.99712
                               Volume (L)  =   1.00299
                        Viscosity (mPa s)  =   0.89021
                        Activity of water  =   1.000
                 Ionic strength (mol/kgw)  =   1.000e-03
                       Mass of water (kg)  =   1.000e+00
                 Total alkalinity (eq/kg)  =   1.451e-09
                         Temperature (°C)  =  25.00
                  Electrical balance (eq)  =  -2.451e-09
 Percent error, 100*(Cat-|An|)/(Cat+|An|)  =  -0.00
                               Iterations  =  15 (317 overall)
                                  Total H  = 1.110124e+02
                                  Total O  = 5.550622e+01

----------------------------Distribution of species----------------------------

                                               Log       Log       Log    mole V
   Species          Molality    Activity  Molality  Activity     Gamma   cm³/mol

   OH-             1.049e-07   1.012e-07    -6.979    -6.995    -0.016     -4.11
   H+              1.035e-07   1.000e-07    -6.985    -7.000    -0.015      0.00
   H2O             5.551e+01   1.000e+00     1.744    -0.000     0.000     18.07
Br            1.000e-03
   Br-             1.000e-03   9.647e-04    -3.000    -3.016    -0.016     24.56
Cl            1.000e-09
   Cl-             1.000e-09   9.649e-10    -9.000    -9.016    -0.016     18.07
   HCl             3.321e-17   3.324e-17   -16.479   -16.478     0.000     20.36
   FeCl+           1.719e-24   1.659e-24   -23.765   -23.780    -0.015     (0)  
   FeCl+2          3.356e-30   2.914e-30   -29.474   -29.535    -0.061     (0)  
   FeCl2+          1.301e-38   1.256e-38   -37.886   -37.901    -0.015     (0)  
   FeCl3           0.000e+00   0.000e+00   -47.917   -47.917     0.000     (0)  
Fe(2)         1.436e-15
   Fe+2            1.432e-15   1.245e-15   -14.844   -14.905    -0.061    -22.14
   FeOH+           4.079e-18   3.938e-18   -17.389   -17.405    -0.015     (0)  
   Fe(OH)2         3.351e-22   3.352e-22   -21.475   -21.475     0.000     (0)  
   FeCl+           1.719e-24   1.659e-24   -23.765   -23.780    -0.015     (0)  
   Fe(OH)3-        1.290e-25   1.245e-25   -24.889   -24.905    -0.015     (0)  
Fe(3)         4.995e-14
   Fe(OH)3         2.754e-14   2.754e-14   -13.560   -13.560     0.000     (0)  
   Fe(OH)2+        2.214e-14   2.138e-14   -13.655   -13.670    -0.015     (0)  
   Fe(OH)4-        2.602e-16   2.512e-16   -15.585   -15.600    -0.015     (0)  
   FeOH+2          7.436e-18   6.457e-18   -17.129   -17.190    -0.061     (0)  
   Fe+3            1.358e-22   1.000e-22   -21.867   -22.000    -0.133     (0)  
   FeCl+2          3.356e-30   2.914e-30   -29.474   -29.535    -0.061     (0)  
   Fe2(OH)2+4      1.985e-33   1.122e-33   -32.702   -32.950    -0.248     (0)  
   FeCl2+          1.301e-38   1.256e-38   -37.886   -37.901    -0.015     (0)  
   Fe3(OH)4+5      0.000e+00   0.000e+00   -43.913   -44.300    -0.387     (0)  
   FeCl3           0.000e+00   0.000e+00   -47.917   -47.917     0.000     (0)  
H(0)          2.002e-29
   H2              1.001e-29   1.001e-29   -29.000   -28.999     0.000     14.99
Na            1.000e-03
   Na+             1.000e-03   9.652e-04    -3.000    -3.015    -0.015     -1.48
O(0)          8.656e-35
   O2              4.328e-35   4.329e-35   -34.364   -34.364     0.000     30.40

------------------------------Saturation indices-------------------------------

  Phase               SI** log IAP   log K(298 K,   1 atm)

  Fe(OH)3(a)       -5.89     -1.00    4.89  Fe(OH)3
  Goethite         -0.00     -1.00   -1.00  FeOOH
  H2(g)           -25.90    -29.00   -3.10  H2
  H2O(g)           -1.50     -0.00    1.50  H2O
  Halite          -13.60    -12.03    1.57  NaCl
  Hematite          2.01     -2.00   -4.01  Fe2O3
  O2(g)           -31.47    -34.36   -2.89  O2

**For a gas, SI = log10(fugacity). Fugacity = pressure * phi / 1 atm.
  For ideal gases, phi = 1.

------------------
End of simulation.
------------------

-------------------------------------
Reading input data for simulation 17.
-------------------------------------

	SURFACE 1 
	 Hfo_wCl Goethite 1e-2 2e3 
	 donnan # can be added, wonderful! 
	 equilibrate 1
	END
WARNING: Element Cl in sum of surface sites,
	 including Hfo_wOH * 0.01 mol sites/mol phase,
	 exceeds stoichiometry in the related phase Goethite, FeOOH.
WARNING: The mismatch in stoichiometry may cause mass-balance errors or unwanted redox reactions.
------------------------------------------------------
Beginning of initial surface-composition calculations.
------------------------------------------------------

Surface 1.	

Diffuse Double Layer Surface-Complexation Model

Hfo           
	 -5.834e-15  Surface + diffuse layer charge, eq
	  1.234e-05  Surface charge, eq
	  5.953e-03  sigma, C/m²
	  6.430e-02  psi, V
	 -2.503e+00  -F*psi/RT
	  8.186e-02  exp(-F*psi/RT)
	  2.000e+03  specific area, m²/mol Goethite
	  2.000e+02  m² for   1.000e-01 moles of Goethite

	Water in diffuse layer: 2.000e-03 kg, 100.0% of total DDL-water.
		      viscosity: 0.00000 mPa s for DDL water.

	Total moles in diffuse layer (excluding water), Donnan calculation.
	Donnan Layer potential, psi_DL =  4.740e-02 V.
	Boltzmann factor, exp(-psi_DL * F / RT) = 1.581e-01 (= c_DL / c_free if z is +1).

	Element       	     Moles
	Br            	  1.2654e-05
	Cl            	  1.2654e-11
	Fe            	  6.5436e-17
	H             	  1.3601e-09
	Na            	  3.1611e-07
	O             	  1.3274e-09

Hfo_w         
	  1.000e-03  moles	[0.01 mol/(mol Goethite)]
	                                   Mole                     Log
	Species               Moles    Fraction    Molality    Molality

	Hfo_wOH           7.674e-04       0.767   7.674e-04      -3.115
	Hfo_wOH2+         1.225e-04       0.122   1.225e-04      -3.912
	Hfo_wO-           1.101e-04       0.110   1.101e-04      -3.958
	Hfo_wOFe+         8.191e-16       0.000   8.191e-16     -15.087
	Hfo_wOFeOH        2.693e-16       0.000   2.693e-16     -15.570

----------------------------------User print-----------------------------------

  1.0127e-09   1.1101e+02  -9.8988e-02 

------------------
End of simulation.
------------------

-------------------------------------
Reading input data for simulation 18.
-------------------------------------

	USE solution 1
	USE surface 1
	USE equilibrium_phases 1
	Reaction
		HBr 1
		5
	END 
-----------------------------------------
Beginning of batch-reaction calculations.
-----------------------------------------

Reaction step 1.

WARNING: Maximum iterations exceeded, 100

WARNING: Numerical method failed with this set of convergence parameters.

WARNING: Trying smaller step size, pe step size 10, 5 ... 

WARNING: Maximum iterations exceeded, 200

WARNING: Numerical method failed with this set of convergence parameters.

WARNING: Trying reduced tolerance 1e-16 ...

WARNING: Maximum iterations exceeded, 200

WARNING: Numerical method failed with this set of convergence parameters.

WARNING: Trying increased tolerance 1e-14 ...

WARNING: Maximum iterations exceeded, 200

WARNING: Numerical method failed with this set of convergence parameters.

WARNING: Trying diagonal scaling ...

WARNING: Maximum iterations exceeded, 200

WARNING: Numerical method failed with this set of convergence parameters.

WARNING: Trying diagonal scaling and reduced tolerance 1e-16 ...

WARNING: Maximum iterations exceeded, 200

WARNING: Numerical method failed with this set of convergence parameters.

WARNING: Trying scaling pure_phase columns 1e-10 ...

WARNING: Maximum iterations exceeded, 200

WARNING: Numerical method failed with this set of convergence parameters.

WARNING: Trying scaling pure_phase columns and diagonal scale 1e-10 ...

WARNING: Maximum iterations exceeded, 200

WARNING: Numerical method failed with this set of convergence parameters.

WARNING: Trying delay removal of equilibrium phases 1 ...

WARNING: Maximum iterations exceeded, 100

WARNING: Numerical method failed with this set of convergence parameters.

WARNING: Trying increased scaling 1e-09 ...

WARNING: Maximum iterations exceeded, 200

WARNING: Numerical method failed with this set of convergence parameters.

WARNING: Skipping optimize equations for first 5 iterations ...

WARNING: Maximum iterations exceeded, 100

WARNING: Numerical method failed with this set of convergence parameters.

WARNING: Adding inequality to make concentrations greater than zero.

WARNING: Maximum iterations exceeded, 100

WARNING: Numerical method failed with this set of convergence parameters.

WARNING: Trying reduced tolerance 1e-17 ...

WARNING: Maximum iterations exceeded, 200

WARNING: Numerical method failed with this set of convergence parameters.

WARNING: Trying reduced tolerance 1e-18 ...

WARNING: Maximum iterations exceeded, 200

WARNING: Numerical method failed with this set of convergence parameters.

WARNING: The program has failed to converge to a numerical solution.

The following equations were not satisfied:
ERROR:                   Br has not converged. Total: 5.001013e+00	Calculated: 5.000940e+00	Residual: 7.295272e-05

ERROR:                   Fe has not converged. Total: 1.422734e-04	Calculated: 8.040595e-06	Residual: 1.342328e-04

ERROR:                   Na has not converged. Total: 1.000316e-03	Calculated: 1.000336e-03	Residual: -2.000029e-08

ERROR:                   Mu Ionic strength has not converged. 	Residual: -3.121339e-05

ERROR:               A(H2O) Activity of water has not converged. 	Residual: 1.009685e-07

ERROR:                   pH Charge balance has not converged. 	Residual: -2.237661e-05

ERROR:             Hydrogen Mass of hydrogen has not converged. 	Residual: -5.251620e-04

ERROR:               Oxygen Mass of oxygen has not converged. 	Residual: 1.263037e-04

ERROR:                Hfo_w Surface mass balance has not converged. 	Residual: -5.026083e-07

ERROR:               Hfo_CB Surface charge/potential has not converged. 	Residual: -1.722406e-04

Using solution 1.	Solution after simulation 16.
Using surface 1.	
Using pure phase assemblage 1.	
Using reaction 1.	

Reaction 1.	

	  5.000e+00 moles of the following reaction have been added:

	                 Relative
	Reactant            moles

	HBr                  1.00000

	                 Relative
	Element             moles
	Br                   1.00000
	H                    1.00000

----------------------------------User print-----------------------------------

           0   1.1611e+02   5.1003e+00 

-------------------------------Phase assemblage--------------------------------

                                                      Moles in assemblage
Phase               SI  log IAP  log K(T, P)   Initial       Final       Delta

Goethite         -7.25    -8.25     -1.00    1.000e-01   9.986e-02  -1.423e-04

------------------------------Surface composition------------------------------

Diffuse Double Layer Surface-Complexation Model

Hfo           
	  1.722e-04  Surface + diffuse layer charge, eq
	  9.991e-04  Surface charge, eq
	  4.827e-01  sigma, C/m²
	  6.208e-02  psi, V
	 -2.416e+00  -F*psi/RT
	  8.925e-02  exp(-F*psi/RT)
	  2.000e+03  specific area, m²/mol Goethite
	  1.997e+02  m² for   9.986e-02 moles of Goethite

	Water in diffuse layer: 1.997e-03 kg, 100.0% of total DDL-water.
		      viscosity: 0.00000 mPa s for DDL water.

	Total moles in diffuse layer (excluding water), Donnan calculation.
	Donnan Layer potential, psi_DL =  1.065e-03 V.
	Boltzmann factor, exp(-psi_DL * F / RT) = 9.594e-01 (= c_DL / c_free if z is +1).

	Element       	     Moles
	Br            	  1.0389e-02
	Cl            	  0.0000e+00
	Fe            	  1.4155e-08
	H             	  9.5601e-03
	Na            	  1.9130e-06
	O             	  1.0908e-10

Hfo_w         
	  9.986e-04  moles	[0.01 mol/(mol Goethite)]
	                                   Mole                     Log
	Species               Moles    Fraction    Molality    Molality

	Hfo_wOH2+         9.991e-04       1.001   9.991e-04      -3.000
	Hfo_wOH           1.625e-10       0.000   1.625e-10      -9.789
	Hfo_wO-           6.052e-19       0.000   6.052e-19     -18.218
	Hfo_wOFe+         7.598e-29       0.000   7.598e-29     -28.119
	Hfo_wOFeOH        5.384e-37       0.000   5.384e-37     -36.269

-----------------------------Solution composition------------------------------

	Elements           Molality       Moles

	Br                4.991e+00   4.991e+00
	Cl                0.000e+00   0.000e+00
	Fe                8.026e-06   8.026e-06
	Na                9.984e-04   9.984e-04

----------------------------Description of solution----------------------------

                                       pH  =  -0.548      Charge balance
                                       pe  =  20.328      Adjusted to redox equilibrium
      Specific Conductance (µS/cm,  25°C)  = 815946
                          Density (g/cm³)  =   1.23869
                               Volume (L)  =   1.13331
                        Viscosity (mPa s)  =   1.03245
                        Activity of water  =   0.830
                 Ionic strength (mol/kgw)  =   4.991e+00
                       Mass of water (kg)  =   1.000e+00
                 Total alkalinity (eq/kg)  =  -4.990e+00
                         Temperature (°C)  =  25.00
                  Electrical balance (eq)  =   2.237e-05
 Percent error, 100*(Cat-|An|)/(Cat+|An|)  =   0.00
                               Iterations  = 201 (2414 overall)
                                  Total H  = 1.160023e+02
                                  Total O  = 5.550638e+01

----------------------------Distribution of species----------------------------

                                               Log       Log       Log    mole V
   Species          Molality    Activity  Molality  Activity     Gamma   cm³/mol

   H+              4.990e+00   3.534e+00     0.698     0.548    -0.150      0.00
   OH-             4.961e-15   2.378e-15   -14.304   -14.624    -0.319      3.41
   H2O             5.551e+01   8.303e-01     1.744    -0.081     0.000     18.07
Br            4.991e+00
   Br-             4.991e+00   3.688e+00     0.698     0.567    -0.131     26.12
Cl            0.000e+00
   Cl-             0.000e+00   0.000e+00   -41.963   -42.189    -0.226     19.94
   HCl             0.000e+00   0.000e+00   -44.227   -42.103     2.124     20.36
   FeCl+2          0.000e+00   0.000e+00   -46.177   -47.153    -0.976     (0)  
   FeCl+           0.000e+00   0.000e+00   -56.212   -55.801     0.411     (0)  
   FeCl2+          0.000e+00   0.000e+00   -88.448   -88.692    -0.244     (0)  
   FeCl3           0.000e+00   0.000e+00  -132.379  -131.880     0.499     (0)  
Fe(2)         1.233e-13
   Fe+2            1.233e-13   1.768e-14   -12.909   -13.752    -0.844    -18.07
   FeOH+           2.305e-24   1.314e-24   -23.637   -23.881    -0.244     (0)  
   Fe(OH)2         8.328e-37   2.628e-36   -36.079   -35.580     0.499     (0)  
   Fe(OH)3-        0.000e+00   0.000e+00   -46.395   -46.639    -0.244     (0)  
   FeCl+           0.000e+00   0.000e+00   -56.212   -55.801     0.411     (0)  
Fe(3)         8.026e-06
   Fe+3            8.021e-06   3.596e-07    -5.096    -6.444    -1.348     (0)  
   FeOH+2          5.163e-09   5.455e-10    -8.287    -9.263    -0.976     (0)  
   Fe(OH)2+        7.201e-14   4.244e-14   -13.143   -13.372    -0.230     (0)  
   Fe(OH)3         4.072e-22   1.285e-21   -21.390   -20.891     0.499     (0)  
   Fe2(OH)2+4      2.105e-24   8.009e-18   -23.677   -17.096     6.580     (0)  
   Fe(OH)4-        4.671e-31   2.753e-31   -30.331   -30.560    -0.230     (0)  
   Fe3(OH)4+5      3.712e-39   7.103e-29   -38.430   -28.149    10.282     (0)  
   FeCl+2          0.000e+00   0.000e+00   -46.177   -47.153    -0.976     (0)  
   FeCl2+          0.000e+00   0.000e+00   -88.448   -88.692    -0.244     (0)  
   FeCl3           0.000e+00   0.000e+00  -132.379  -131.880     0.499     (0)  
H(0)          0.000e+00
   H2              0.000e+00   0.000e+00   -43.234   -42.710     0.524     14.99
Na            9.984e-04
   Na+             9.984e-04   1.328e-03    -3.001    -2.877     0.124      1.02
O(0)          4.987e-08
   O2              2.493e-08   7.867e-08    -7.603    -7.104     0.499     30.40

------------------------------Saturation indices-------------------------------

  Phase               SI** log IAP   log K(298 K,   1 atm)

  Fe(OH)3(a)      -13.22     -8.33    4.89  Fe(OH)3
  Goethite         -7.25     -8.25   -1.00  FeOOH
  H2(g)           -39.61    -42.71   -3.10  H2
  H2O(g)           -1.58     -0.08    1.50  H2O
  Halite          -46.64    -45.07    1.57  NaCl
  Hematite        -12.41    -16.42   -4.01  Fe2O3
  O2(g)            -4.21     -7.10   -2.89  O2

**For a gas, SI = log10(fugacity). Fugacity = pressure * phi / 1 atm.
  For ideal gases, phi = 1.

ERROR: Numerical method failed on all combinations of convergence parameters, cell/soln/mix 1
Stopping.
