WARNING: Database file from DATABASE keyword is used; command line argument ignored.
   Input file: surf_total
  Output file: surf_total.out
Database file: ../database/phreeqc.dat

------------------
Reading data base.
------------------

	SOLUTION_MASTER_SPECIES
	SOLUTION_SPECIES
	PHASES
	GAS_BINARY_PARAMETERS
	EXCHANGE_MASTER_SPECIES
	EXCHANGE_SPECIES
	SURFACE_MASTER_SPECIES
	SURFACE_SPECIES
	MEAN_GAMMAS
	RATES
	END
------------------------------------
Reading input data for simulation 1.
------------------------------------

	database ../database/phreeqc.dat
	SELECTED_OUTPUT 101
	    file                 surf_total_101.sel
	USER_PUNCH 101
	    headings Mu SC
	    start
	10 PUNCH STR_F$(MU, 20, 12)
	20 PUNCH STR_F$(SC, 20, 10)
	    end
	SURFACE_MASTER_SPECIES    # identify surface binding-site name and corresponding surface master species
	Surfo SurfoH          # this is the acid Surface binding-site name=Surfoa Surface master species=SurfoaH 
	Surfca SurfcaOH               # this is CaOH Surface binding-site name=Surfca Surface master species=SurfcaOH 
	SURFACE_SPECIES
	SurfoH  = SurfoH                  
	 log_k   0.0
	SurfoH  = Surfo- + H+             
	 log_k  -3.98  
	 delta_h 0  kJ
	SurfoH + Ca+2 = SurfoCa+ + H+     
	 log_k  -2.2  
	 delta_h 0 kJ
	SurfoH + Mg+2 = SurfoMg+ + H+     
	 log_k  -3.3  
	 delta_h 0 kJ
	SurfcaOH = SurfcaOH                       
	 log_k   0.0
	SurfcaOH  + H+      = SurfcaOH2+          
	 log_k   9.81 
	 delta_h 0  kJ  
	SurfcaOH2+ + SO4-2  = SurfcaSO4- + H2O    
	 log_k   3.3  
	 delta_h 0  kJ  
	SOLUTION 0
	 temp 100
	 units ppm
	 pH 8.5 
	 C 122.0336 as HCO3 
	 Cl 4467.078 
	 S 2305.68 as SO4-2  
	 Mg 1093.725 
	 Ca 521.014 
	 Na 1149.4885
	  K 390.98 
	END
-------------------------------------------
Beginning of initial solution calculations.
-------------------------------------------

Initial solution 0.	

-----------------------------Solution composition------------------------------

	Elements           Molality       Moles

	C                 2.020e-03   2.020e-03
	Ca                1.313e-02   1.313e-02
	Cl                1.273e-01   1.273e-01
	K                 1.010e-02   1.010e-02
	Mg                4.544e-02   4.544e-02
	Na                5.051e-02   5.051e-02
	S                 2.425e-02   2.425e-02

----------------------------Description of solution----------------------------

                                       pH  =   8.500    
                                       pe  =   4.000    
      Specific Conductance (µS/cm, 100°C)  = 36119
                          Density (g/cm³)  =   0.96658
                               Volume (L)  =   1.04514
                        Viscosity (mPa s)  =   0.29127
                        Activity of water  =   0.996
                 Ionic strength (mol/kgw)  =   1.781e-01
                       Mass of water (kg)  =   1.000e+00
                 Total alkalinity (eq/kg)  =   5.989e-03
                       Total CO2 (mol/kg)  =   2.020e-03
                         Temperature (°C)  = 100.00
                  Electrical balance (eq)  =  -4.000e-03
 Percent error, 100*(Cat-|An|)/(Cat+|An|)  =  -1.46
                               Iterations  =  10
                                  Total H  = 1.110166e+02
                                  Total O  = 5.561234e+01

----------------------------Distribution of species----------------------------

                                               Log       Log       Log    mole V
   Species          Molality    Activity  Molality  Activity     Gamma   cm³/mol

   OH-             2.679e-04   1.819e-04    -3.572    -3.740    -0.168     -4.92
   H+              4.075e-09   3.162e-09    -8.390    -8.500    -0.110      0.00
   H2O             5.551e+01   9.957e-01     1.744    -0.002     0.000     18.80
C(-4)         0.000e+00
   CH4             0.000e+00   0.000e+00   -89.778   -89.760     0.018     41.06
C(4)          2.020e-03
   HCO3-           8.946e-04   6.468e-04    -3.048    -3.189    -0.141     26.35
   CaCO3           5.002e-04   5.211e-04    -3.301    -3.283     0.018    -14.43
   MgCO3           3.375e-04   3.516e-04    -3.472    -3.454     0.018    -17.07
   MgHCO3+         1.899e-04   1.312e-04    -3.722    -3.882    -0.160      5.95
   CO3-2           5.304e-05   1.431e-05    -4.275    -4.844    -0.569     -5.17
   NaHCO3          2.740e-05   2.915e-05    -4.562    -4.535     0.027     20.40
   CaHCO3+         7.374e-06   5.396e-06    -5.132    -5.268    -0.136     10.94
   CO2             5.339e-06   5.486e-06    -5.273    -5.261     0.012     39.13
   KHCO3           4.910e-06   5.115e-06    -5.309    -5.291     0.018     24.06
   (CO2)2          2.608e-12   2.679e-12   -11.584   -11.572     0.012     77.42
Ca            1.313e-02
   Ca+2            8.929e-03   2.466e-03    -2.049    -2.608    -0.559    -18.00
   CaSO4           3.695e-03   3.763e-03    -2.432    -2.424     0.008     10.99
   CaCO3           5.002e-04   5.211e-04    -3.301    -3.283     0.018    -14.43
   CaHCO3+         7.374e-06   5.396e-06    -5.132    -5.268    -0.136     10.94
   CaOH+           1.804e-07   1.289e-07    -6.744    -6.890    -0.146     (0)  
   CaHSO4+         1.066e-10   7.616e-11    -9.972   -10.118    -0.146     (0)  
Cl            1.273e-01
   Cl-             1.273e-01   8.743e-02    -0.895    -1.058    -0.163     16.92
   HCl             5.024e-11   5.982e-11   -10.299   -10.223     0.076     23.04
H(0)          7.468e-29
   H2              3.734e-29   3.898e-29   -28.428   -28.409     0.019     18.32
K             1.010e-02
   K+              9.797e-03   6.692e-03    -2.009    -2.174    -0.166     10.57
   KSO4-           2.986e-04   2.326e-04    -3.525    -3.633    -0.108     23.24
   KHCO3           4.910e-06   5.115e-06    -5.309    -5.291     0.018     24.06
Mg            4.544e-02
   Mg+2            2.751e-02   8.140e-03    -1.560    -2.089    -0.529    -23.63
   MgSO4           1.453e-02   1.577e-02    -1.838    -1.802     0.036      2.86
   MgOH+           2.815e-03   2.084e-03    -2.551    -2.681    -0.131     (0)  
   MgCO3           3.375e-04   3.516e-04    -3.472    -3.454     0.018    -17.07
   MgHCO3+         1.899e-04   1.312e-04    -3.722    -3.882    -0.160      5.95
   Mg(SO4)2-2      6.338e-05   2.026e-05    -4.198    -4.693    -0.495     67.47
Na            5.051e-02
   Na+             4.934e-02   3.536e-02    -1.307    -1.452    -0.145      0.84
   NaSO4-          1.131e-03   8.024e-04    -2.947    -3.096    -0.149     16.55
   NaHCO3          2.740e-05   2.915e-05    -4.562    -4.535     0.027     20.40
   Na2SO4          3.709e-06   3.846e-06    -5.431    -5.415     0.016     29.73
O(0)          5.185e-17
   O2              2.593e-17   2.701e-17   -16.586   -16.568     0.018     33.90
S(-2)         0.000e+00
   HS-             0.000e+00   0.000e+00   -86.480   -86.648    -0.168     20.61
   H2S             0.000e+00   0.000e+00   -88.645   -88.627     0.018     46.17
   S-2             0.000e+00   0.000e+00   -88.695   -89.284    -0.588     (0)  
   (H2S)2          0.000e+00   0.000e+00  -178.106  -178.088     0.018     24.22
S(6)          2.425e-02
   MgSO4           1.453e-02   1.577e-02    -1.838    -1.802     0.036      2.86
   SO4-2           4.464e-03   1.134e-03    -2.350    -2.946    -0.595     13.55
   CaSO4           3.695e-03   3.763e-03    -2.432    -2.424     0.008     10.99
   NaSO4-          1.131e-03   8.024e-04    -2.947    -3.096    -0.149     16.55
   KSO4-           2.986e-04   2.326e-04    -3.525    -3.633    -0.108     23.24
   Mg(SO4)2-2      6.338e-05   2.026e-05    -4.198    -4.693    -0.495     67.47
   Na2SO4          3.709e-06   3.846e-06    -5.431    -5.415     0.016     29.73
   HSO4-           3.595e-09   2.569e-09    -8.444    -8.590    -0.146     41.49
   CaHSO4+         1.066e-10   7.616e-11    -9.972   -10.118    -0.146     (0)  

------------------------------Saturation indices-------------------------------

  Phase               SI** log IAP   log K(373 K,   1 atm)

  Anhydrite         0.09     -5.55   -5.64  CaSO4
  Aragonite         1.71     -7.45   -9.17  CaCO3
  Arcanite         -5.83     -7.29   -1.46  K2SO4
  Calcite           1.93     -7.45   -9.39  CaCO3
  CH4(g)          -86.76    -89.76   -3.00  CH4
  CO2(g)           -3.28     -5.26   -1.98  CO2
  Dolomite          5.09    -14.39  -19.48  CaMg(CO3)2
  Epsomite         -3.78     -5.05   -1.27  MgSO4:7H2O
  Gypsum           -0.31     -5.56   -5.25  CaSO4:2H2O
  H2(g)           -25.32    -28.41   -3.09  H2
  H2O(g)           -0.01     -0.00    0.00  H2O
  H2S(g)          -87.14    -95.15   -8.00  H2S
  Halite           -4.13     -2.51    1.62  NaCl
  Hexahydrite      -3.58     -5.05   -1.46  MgSO4:6H2O
  Kieserite        -3.05     -5.04   -1.99  MgSO4:H2O
  Mirabilite      -11.40     -5.87    5.53  Na2SO4:10H2O
  O2(g)           -13.45    -16.57   -3.11  O2
  Sulfur          -67.11    -63.63    3.48  S
  Sylvite          -4.43     -3.23    1.20  KCl
  Thenardite       -5.33     -5.85   -0.51  Na2SO4

**For a gas, SI = log10(fugacity). Fugacity = pressure * phi / 1 atm.
  For ideal gases, phi = 1.

------------------
End of simulation.
------------------

------------------------------------
Reading input data for simulation 2.
------------------------------------

	SOLUTION 1-10
	 temp 100
	 units ppm
	 pH 8.5 
	C 549.15 as HCO3 
	 Cl 37935.0
	 Mg 194.44 
	 Ca 1162.3 
	 Na 22990.0
	  K 195.49 
	END
-------------------------------------------
Beginning of initial solution calculations.
-------------------------------------------

Initial solution 1.	

-----------------------------Solution composition------------------------------

	Elements           Molality       Moles

	C                 9.605e-03   9.605e-03
	Ca                3.095e-02   3.095e-02
	Cl                1.142e+00   1.142e+00
	K                 5.336e-03   5.336e-03
	Mg                8.536e-03   8.536e-03
	Na                1.067e+00   1.067e+00

----------------------------Description of solution----------------------------

                                       pH  =   8.500    
                                       pe  =   4.000    
      Specific Conductance (µS/cm, 100°C)  = 231960
                          Density (g/cm³)  =   1.00211
                               Volume (L)  =   1.06503
                        Viscosity (mPa s)  =   0.32577
                        Activity of water  =   0.962
                 Ionic strength (mol/kgw)  =   1.180e+00
                       Mass of water (kg)  =   1.000e+00
                 Total alkalinity (eq/kg)  =   1.446e-02
                       Total CO2 (mol/kg)  =   9.605e-03
                         Temperature (°C)  = 100.00
                  Electrical balance (eq)  =  -4.858e-03
 Percent error, 100*(Cat-|An|)/(Cat+|An|)  =  -0.21
                               Iterations  =   7
                                  Total H  = 1.110192e+02
                                  Total O  = 5.553603e+01

----------------------------Distribution of species----------------------------

                                               Log       Log       Log    mole V
   Species          Molality    Activity  Molality  Activity     Gamma   cm³/mol

   OH-             3.373e-04   1.757e-04    -3.472    -3.755    -0.283     -2.49
   H+              4.467e-09   3.162e-09    -8.350    -8.500    -0.150      0.00
   H2O             5.551e+01   9.616e-01     1.744    -0.017     0.000     18.80
C(-4)         0.000e+00
   CH4             0.000e+00   0.000e+00   -89.255   -89.137     0.118     41.06
C(4)          9.605e-03
   HCO3-           3.945e-03   2.447e-03    -2.404    -2.611    -0.208     32.67
   CaCO3           3.229e-03   4.237e-03    -2.491    -2.373     0.118    -14.43
   NaHCO3          1.518e-03   2.288e-03    -2.819    -2.641     0.178     20.40
   CO3-2           3.984e-04   5.411e-05    -3.400    -4.267    -0.867     -1.51
   MgCO3           2.218e-04   2.911e-04    -3.654    -3.536     0.118    -17.07
   MgHCO3+         1.986e-04   1.086e-04    -3.702    -3.964    -0.262      6.29
   CaHCO3+         6.982e-05   4.387e-05    -4.156    -4.358    -0.202     11.19
   CO2             1.796e-05   2.149e-05    -4.746    -4.668     0.078     39.13
   KHCO3           6.371e-06   8.360e-06    -5.196    -5.078     0.118     24.06
   (CO2)2          3.436e-11   4.110e-11   -10.464   -10.386     0.078     77.42
Ca            3.095e-02
   Ca+2            2.765e-02   5.301e-03    -1.558    -2.276    -0.717    -16.60
   CaCO3           3.229e-03   4.237e-03    -2.491    -2.373     0.118    -14.43
   CaHCO3+         6.982e-05   4.387e-05    -4.156    -4.358    -0.202     11.19
   CaOH+           3.368e-07   2.675e-07    -6.473    -6.573    -0.100     (0)  
Cl            1.142e+00
   Cl-             1.142e+00   6.314e-01     0.058    -0.200    -0.257     18.07
   HCl             1.359e-10   4.320e-10    -9.867    -9.365     0.502     23.04
H(0)          5.861e-29
   H2              2.931e-29   3.898e-29   -28.533   -28.409     0.124     18.32
K             5.336e-03
   K+              5.329e-03   2.891e-03    -2.273    -2.539    -0.266     11.16
   KHCO3           6.371e-06   8.360e-06    -5.196    -5.078     0.118     24.06
Mg            8.536e-03
   Mg+2            7.432e-03   1.781e-03    -2.129    -2.749    -0.620    -22.44
   MgOH+           6.834e-04   4.404e-04    -3.165    -3.356    -0.191     (0)  
   MgCO3           2.218e-04   2.911e-04    -3.654    -3.536     0.118    -17.07
   MgHCO3+         1.986e-04   1.086e-04    -3.702    -3.964    -0.262      6.29
Na            1.067e+00
   Na+             1.066e+00   7.335e-01     0.028    -0.135    -0.162      1.30
   NaHCO3          1.518e-03   2.288e-03    -2.819    -2.641     0.178     20.40
O(0)          3.839e-17
   O2              1.920e-17   2.519e-17   -16.717   -16.599     0.118     33.90

------------------------------Saturation indices-------------------------------

  Phase               SI** log IAP   log K(373 K,   1 atm)

  Aragonite         2.62     -6.54   -9.17  CaCO3
  Calcite           2.84     -6.54   -9.39  CaCO3
  CH4(g)          -86.13    -89.14   -3.00  CH4
  CO2(g)           -2.69     -4.67   -1.98  CO2
  Dolomite          5.92    -13.56  -19.48  CaMg(CO3)2
  H2(g)           -25.32    -28.41   -3.09  H2
  H2O(g)           -0.02     -0.02    0.00  H2O
  Halite           -1.95     -0.33    1.62  NaCl
  O2(g)           -13.48    -16.60   -3.11  O2
  Sylvite          -3.94     -2.74    1.20  KCl

**For a gas, SI = log10(fugacity). Fugacity = pressure * phi / 1 atm.
  For ideal gases, phi = 1.

------------------
End of simulation.
------------------

------------------------------------
Reading input data for simulation 3.
------------------------------------

	EXCHANGE 1-10
	 X 0.0006 
	 equilibrate 1   
	SURFACE 1-10   
	 equilibrate 1                  # in equilibrium with solution 1
	 sites_units density      # can be absolute or density default listed as absolute
	 Surfo   2.00 10.00 30.  # sites per square nanometer, specific_area_per_gram m^2/g, grams (1.66 micromoles/m^2)
	 Surfca      1.15 10.00 30.  # sites per square nanometer, specific_area_per_gram m^2/g, grams (6.7 get ballpark figures moles/m^2)
	EQUILIBRIUM_PHASES 1-10
	 Calcite  0.0 
	END
-------------------------------------------------------
Beginning of initial exchange-composition calculations.
-------------------------------------------------------

Exchange 1.	

X                6.000e-04 mol

	                               Equiv-    Equivalent      Log 
	Species             Moles      alents      Fraction     Gamma

	NaX               4.719e-04   4.719e-04   7.864e-01    -0.162
	CaX2              5.109e-05   1.022e-04   1.703e-01    -0.717
	MgX2              8.806e-06   1.761e-05   2.935e-02    -0.620
	KX                8.345e-06   8.345e-06   1.391e-02    -0.266

------------------------------------------------------
Beginning of initial surface-composition calculations.
------------------------------------------------------

Surface 1.	

Diffuse Double Layer Surface-Complexation Model

Surfca        
	  4.255e-04  Surface charge, eq
	  1.369e-01  sigma, C/m²
	  6.288e-02  psi, V
	 -1.956e+00  -F*psi/RT
	  1.415e-01  exp(-F*psi/RT)
	  1.000e+01  specific area, m²/g
	  3.000e+02  m² for   3.000e+01 g


Surfca        
	  5.728e-04  moles
	                                   Mole                     Log
	Species               Moles    Fraction    Molality    Molality

	SurfcaOH2+        4.255e-04       0.743   4.255e-04      -3.371
	SurfcaOH          1.473e-04       0.257   1.473e-04      -3.832

Surfo         
	 -8.818e-05  Surface charge, eq
	 -2.836e-02  sigma, C/m²
	 -1.507e-02  psi, V
	  4.687e-01  -F*psi/RT
	  1.598e+00  exp(-F*psi/RT)
	  1.000e+01  specific area, m²/g
	  3.000e+02  m² for   3.000e+01 g


Surfo         
	  9.963e-04  moles
	                                   Mole                     Log
	Species               Moles    Fraction    Molality    Molality

	Surfo-            5.422e-04       0.544   5.422e-04      -3.266
	SurfoCa+          4.422e-04       0.444   4.422e-04      -3.354
	SurfoMg+          1.180e-05       0.012   1.180e-05      -4.928
	SurfoH            2.616e-08       0.000   2.616e-08      -7.582

------------------
End of simulation.
------------------

------------------------------------
Reading input data for simulation 4.
------------------------------------

	SELECTED_OUTPUT   1
	reset false
	file surf_total.sel
	USER_PUNCH   1
	headings Surfca Surfca(O) Surfca(H) Surfca(charge) Surfo Surfo(charge) Surfo(O) Surfo(H) Surfo(Ca)
	10  PUNCH SURF("Surfca", "Surfca")
	20  PUNCH SURF("O", "Surfca")
	30  PUNCH SURF("H", "Surfca")
	40  PUNCH EDL("charge", "Surfca")
	50  PUNCH SURF("Surfo", "Surfo")
	60  PUNCH EDL("charge", "Surfo")
	70  PUNCH SURF("O", "Surfo")
	80  PUNCH SURF("H", "Surfo")
	90  PUNCH SURF("Ca", "Surfo")
	DUMP
	-surface  1
	END 
------------------
End of simulation.
------------------

------------------------------------
Reading input data for simulation 5.
------------------------------------

	RUN_CELLS
	-CELLS  1
	END 
--------------------------
Beginning of run as cells.
--------------------------

-----------------------------------------
Beginning of batch-reaction calculations.
-----------------------------------------

Reaction step 1.

Using solution 1.	
Using exchange 1.	Exchange assemblage after simulation 3.
Using surface 1.	
Using pure phase assemblage 1.	

-------------------------------Phase assemblage--------------------------------

                                                      Moles in assemblage
Phase               SI  log IAP  log K(T, P)   Initial       Final       Delta

Calcite           0.00    -9.39     -9.39    1.000e+01   1.001e+01   6.308e-03

------------------------------Surface composition------------------------------

Diffuse Double Layer Surface-Complexation Model

Surfca        
	  5.714e-04  Surface charge, eq
	  1.838e-01  sigma, C/m²
	  7.812e-02  psi, V
	 -2.430e+00  -F*psi/RT
	  8.807e-02  exp(-F*psi/RT)
	  1.000e+01  specific area, m²/g
	  3.000e+02  m² for   3.000e+01 g


Surfca        
	  5.728e-04  moles
	                                   Mole                     Log
	Species               Moles    Fraction    Molality    Molality

	SurfcaOH2+        5.714e-04       0.997   5.713e-04      -3.243
	SurfcaOH          1.492e-06       0.003   1.492e-06      -5.826

Surfo         
	 -9.664e-05  Surface charge, eq
	 -3.108e-02  sigma, C/m²
	 -1.653e-02  psi, V
	  5.141e-01  -F*psi/RT
	  1.672e+00  exp(-F*psi/RT)
	  1.000e+01  specific area, m²/g
	  3.000e+02  m² for   3.000e+01 g


Surfo         
	  9.963e-04  moles
	                                   Mole                     Log
	Species               Moles    Fraction    Molality    Molality

	Surfo-            5.435e-04       0.546   5.435e-04      -3.265
	SurfoCa+          4.322e-04       0.434   4.322e-04      -3.364
	SurfoMg+          1.471e-05       0.015   1.471e-05      -4.832
	SurfoH            5.844e-06       0.006   5.844e-06      -5.233

-----------------------------Exchange composition------------------------------

X                6.000e-04 mol

	                               Equiv-    Equivalent      Log 
	Species             Moles      alents      Fraction     Gamma

	NaX               4.779e-04   4.779e-04   7.964e-01    -0.162
	CaX2              4.659e-05   9.319e-05   1.553e-01    -0.718
	MgX2              1.025e-05   2.050e-05   3.417e-02    -0.621
	KX                8.450e-06   8.450e-06   1.408e-02    -0.265

-----------------------------Solution composition------------------------------

	Elements           Molality       Moles

	C                 3.297e-03   3.297e-03
	Ca                2.466e-02   2.466e-02
	Cl                1.142e+00   1.142e+00
	K                 5.335e-03   5.336e-03
	Mg                8.531e-03   8.531e-03
	Na                1.067e+00   1.067e+00

----------------------------Description of solution----------------------------

                                       pH  =   6.172      Charge balance
                                       pe  =   6.792      Adjusted to redox equilibrium
      Specific Conductance (µS/cm, 100°C)  = 231469
                          Density (g/cm³)  =   1.00146
                               Volume (L)  =   1.06509
                        Viscosity (mPa s)  =   0.32541
                        Activity of water  =   0.962
                 Ionic strength (mol/kgw)  =   1.174e+00
                       Mass of water (kg)  =   1.000e+00
                 Total alkalinity (eq/kg)  =   1.993e-03
                       Total CO2 (mol/kg)  =   3.297e-03
                         Temperature (°C)  = 100.00
                  Electrical balance (eq)  =  -4.995e-03
 Percent error, 100*(Cat-|An|)/(Cat+|An|)  =  -0.22
                               Iterations  =   7
                                  Total H  = 1.110190e+02
                                  Total O  = 5.551711e+01

----------------------------Distribution of species----------------------------

                                               Log       Log       Log    mole V
   Species          Molality    Activity  Molality  Activity     Gamma   cm³/mol

   OH-             1.583e-06   8.251e-07    -5.801    -6.083    -0.283     -2.50
   H+              9.509e-07   6.733e-07    -6.022    -6.172    -0.150      0.00
   H2O             5.551e+01   9.617e-01     1.744    -0.017     0.000     18.80
C(-4)         0.000e+00
   CH4             0.000e+00   0.000e+00   -91.102   -90.985     0.117     41.06
C(4)          3.297e-03
   HCO3-           1.354e-03   8.398e-04    -2.868    -3.076    -0.207     32.63
   CO2             1.314e-03   1.570e-03    -2.881    -2.804     0.077     39.13
   NaHCO3          5.223e-04   7.855e-04    -3.282    -3.105     0.177     20.40
   MgHCO3+         7.736e-05   4.234e-05    -4.111    -4.373    -0.262      6.29
   CaHCO3+         2.133e-05   1.341e-05    -4.671    -4.873    -0.202     11.19
   CaCO3           4.642e-06   6.082e-06    -5.333    -5.216     0.117    -14.43
   KHCO3           2.193e-06   2.873e-06    -5.659    -5.542     0.117     24.06
   CO3-2           6.411e-07   8.724e-08    -6.193    -7.059    -0.866     -1.52
   MgCO3           4.066e-07   5.328e-07    -6.391    -6.273     0.117    -17.07
   (CO2)2          1.837e-07   2.195e-07    -6.736    -6.658     0.077     77.42
Ca            2.466e-02
   Ca+2            2.463e-02   4.720e-03    -1.609    -2.326    -0.718    -16.60
   CaHCO3+         2.133e-05   1.341e-05    -4.671    -4.873    -0.202     11.19
   CaCO3           4.642e-06   6.082e-06    -5.333    -5.216     0.117    -14.43
   CaOH+           1.411e-09   1.119e-09    -8.851    -8.951    -0.101     (0)  
Cl            1.142e+00
   Cl-             1.142e+00   6.316e-01     0.058    -0.200    -0.257     18.06
   HCl             2.913e-08   9.202e-08    -7.536    -7.036     0.500     23.04
H(0)          6.930e-30
   H2              3.465e-30   4.602e-30   -29.460   -29.337     0.123     18.32
K             5.335e-03
   K+              5.333e-03   2.895e-03    -2.273    -2.538    -0.265     11.16
   KHCO3           2.193e-06   2.873e-06    -5.659    -5.542     0.117     24.06
Mg            8.531e-03
   Mg+2            8.450e-03   2.023e-03    -2.073    -2.694    -0.621    -22.44
   MgHCO3+         7.736e-05   4.234e-05    -4.111    -4.373    -0.262      6.29
   MgOH+           3.644e-06   2.349e-06    -5.438    -5.629    -0.191     (0)  
   MgCO3           4.066e-07   5.328e-07    -6.391    -6.273     0.117    -17.07
Na            1.067e+00
   Na+             1.067e+00   7.338e-01     0.028    -0.134    -0.162      1.30
   NaHCO3          5.223e-04   7.855e-04    -3.282    -3.105     0.177     20.40
O(0)          2.759e-15
   O2              1.380e-15   1.808e-15   -14.860   -14.743     0.117     33.90

------------------------------Saturation indices-------------------------------

  Phase               SI** log IAP   log K(373 K,   1 atm)

  Aragonite        -0.22     -9.39   -9.17  CaCO3
  Calcite           0.00     -9.39   -9.39  CaCO3
  CH4(g)          -87.98    -90.98   -3.00  CH4
  CO2(g)           -0.82     -2.80   -1.98  CO2
  Dolomite          0.34    -19.14  -19.48  CaMg(CO3)2
  H2(g)           -26.25    -29.34   -3.09  H2
  H2O(g)           -0.02     -0.02    0.00  H2O
  Halite           -1.95     -0.33    1.62  NaCl
  O2(g)           -11.63    -14.74   -3.11  O2
  Sylvite          -3.94     -2.74    1.20  KCl

**For a gas, SI = log10(fugacity). Fugacity = pressure * phi / 1 atm.
  For ideal gases, phi = 1.

------------------
End of simulation.
------------------

------------------------------------
Reading input data for simulation 6.
------------------------------------

