WARNING: Database file from DATABASE keyword is used; command line argument ignored.
   Input file: sys_ex
  Output file: sys_ex.out
Database file: ../database/phreeqc.dat

------------------
Reading data base.
------------------

	SOLUTION_MASTER_SPECIES
	SOLUTION_SPECIES
	PHASES
	GAS_BINARY_PARAMETERS
	EXCHANGE_MASTER_SPECIES
	EXCHANGE_SPECIES
	SURFACE_MASTER_SPECIES
	SURFACE_SPECIES
	MEAN_GAMMAS
	RATES
	END
------------------------------------
Reading input data for simulation 1.
------------------------------------

	database ../database/phreeqc.dat
	SELECTED_OUTPUT 101
	    file                 sys_ex_101.sel
	USER_PUNCH 101
	    headings Mu SC
	    start
	10 PUNCH STR_F$(MU, 20, 12)
	20 PUNCH STR_F$(SC, 20, 10)
	    end
	EXCHANGE_MASTER_SPECIES
	Y Y-2
	EXCHANGE_SPECIES
	Y-2 = Y-2
	log_k 0
	2Na+ + Y-2 = Na2Y
	 log_k 0.0
	Ca+2 + Y-2 = CaY
	log_k 0.8 # log_k relative to NaX.
	SOLUTION 1
	pH 7.6
	 pe 14 O2(g) -1.0
	 temp 25
	Na 240
	 K 1.61
	 Mg 16.9
	 Ca 25.8
	 Sr 0.505
	Cl 300
	 S(6) 14.1
	 Fe(2) 0.0
	 Alkalinity 0.476
	EXCHANGE 6
	 X 1
	 equilibrate 1
	 Y 1
	 equilibrate 1
	USER_PRINT
	 2 if step_no = 0 then goto 200
	 3 print ' on X...', sys("X"), mol("NaX")
	 5 print ' on Y...', sys("Y"), mol("Na2Y")
	 200 end
-------------------------------------------
Beginning of initial solution calculations.
-------------------------------------------

Initial solution 1.	

----------------------------------User print-----------------------------------


-----------------------------Solution composition------------------------------

	Elements           Molality       Moles

	Alkalinity        4.760e-04   4.760e-04
	Ca                2.580e-02   2.580e-02
	Cl                3.000e-01   3.000e-01
	K                 1.610e-03   1.610e-03
	Mg                1.690e-02   1.690e-02
	Na                2.400e-01   2.400e-01
	S(6)              1.410e-02   1.410e-02
	Sr                5.050e-04   5.050e-04

----------------------------Description of solution----------------------------

                                       pH  =   7.600    
                                       pe  =  12.945      Equilibrium with O2(g)
      Specific Conductance (µS/cm,  25°C)  = 30291
                          Density (g/cm³)  =   1.01114
                               Volume (L)  =   1.00787
                        Viscosity (mPa s)  =   0.92501
                        Activity of water  =   0.990
                 Ionic strength (mol/kgw)  =   3.653e-01
                       Mass of water (kg)  =   1.000e+00
                    Total carbon (mol/kg)  =   4.802e-04
                       Total CO2 (mol/kg)  =   4.802e-04
                         Temperature (°C)  =  25.00
                  Electrical balance (eq)  =  -6.560e-04
 Percent error, 100*(Cat-|An|)/(Cat+|An|)  =  -0.10
                               Iterations  =   6
                                  Total H  = 1.110129e+02
                                  Total O  = 5.556428e+01

----------------------------Distribution of species----------------------------

                                               Log       Log       Log    mole V
   Species          Molality    Activity  Molality  Activity     Gamma   cm³/mol

   OH-             6.063e-07   3.989e-07    -6.217    -6.399    -0.182     -3.17
   H+              3.240e-08   2.512e-08    -7.489    -7.600    -0.111      0.00
   H2O             5.551e+01   9.899e-01     1.744    -0.004     0.000     18.07
C(4)          4.802e-04
   HCO3-           4.084e-04   2.918e-04    -3.389    -3.535    -0.146     26.73
   MgHCO3+         2.336e-05   1.573e-05    -4.631    -4.803    -0.172      5.77
   NaHCO3          2.175e-05   2.469e-05    -4.663    -4.607     0.055     17.66
   CO2             1.575e-05   1.665e-05    -4.803    -4.779     0.024     34.79
   CaCO3           5.647e-06   6.142e-06    -5.248    -5.212     0.037    -14.60
   MgCO3           2.202e-06   2.395e-06    -5.657    -5.621     0.037    -17.09
   CO3-2           2.145e-06   5.449e-07    -5.669    -6.264    -0.595     -1.79
   SrHCO3+         8.080e-07   5.737e-07    -6.093    -6.241    -0.149     (0)  
   KHCO3           1.260e-07   1.370e-07    -6.900    -6.863     0.037     21.42
   SrCO3           4.109e-08   4.470e-08    -7.386    -7.350     0.037    -14.13
   CaHCO3+         2.374e-10   1.717e-10    -9.625    -9.765    -0.141      9.92
   (CO2)2          4.263e-12   4.506e-12   -11.370   -11.346     0.024     68.75
Ca            2.580e-02
   Ca+2            2.428e-02   6.710e-03    -1.615    -2.173    -0.558    -16.98
   CaSO4           1.515e-03   1.572e-03    -2.820    -2.803     0.016      7.22
   CaCO3           5.647e-06   6.142e-06    -5.248    -5.212     0.037    -14.60
   CaOH+           6.006e-08   4.389e-08    -7.221    -7.358    -0.136     (0)  
   CaHSO4+         4.530e-10   3.310e-10    -9.344    -9.480    -0.136     (0)  
   CaHCO3+         2.374e-10   1.717e-10    -9.625    -9.765    -0.141      9.92
Cl            3.000e-01
   Cl-             3.000e-01   2.015e-01    -0.523    -0.696    -0.173     18.60
   HCl             1.219e-09   1.743e-09    -8.914    -8.759     0.155     20.36
H(0)          0.000e+00
   H2              0.000e+00   0.000e+00   -44.278   -44.239     0.038     14.99
K             1.610e-03
   K+              1.578e-03   1.051e-03    -2.802    -2.978    -0.176      9.47
   KSO4-           3.225e-05   2.687e-05    -4.491    -4.571    -0.079     31.49
   KHCO3           1.260e-07   1.370e-07    -6.900    -6.863     0.037     21.42
Mg            1.690e-02
   Mg+2            1.513e-02   4.606e-03    -1.820    -2.337    -0.516    -20.70
   MgSO4           1.712e-03   2.026e-03    -2.766    -2.693     0.073     -0.40
   Mg(SO4)2-2      3.536e-05   1.121e-05    -4.452    -4.950    -0.499     46.83
   MgHCO3+         2.336e-05   1.573e-05    -4.631    -4.803    -0.172      5.77
   MgCO3           2.202e-06   2.395e-06    -5.657    -5.621     0.037    -17.09
   MgOH+           8.986e-07   6.591e-07    -6.046    -6.181    -0.135     (0)  
Na            2.400e-01
   Na+             2.365e-01   1.712e-01    -0.626    -0.767    -0.140     -0.75
   NaSO4-          3.509e-03   2.526e-03    -2.455    -2.598    -0.143     20.23
   NaHCO3          2.175e-05   2.469e-05    -4.663    -4.607     0.055     17.66
   Na2SO4          1.957e-07   2.108e-07    -6.708    -6.676     0.032     47.96
O(0)          2.356e-04
   O2              1.178e-04   1.281e-04    -3.929    -3.892     0.037     30.40
S(6)          1.410e-02
   SO4-2           7.222e-03   1.680e-03    -2.141    -2.775    -0.633     16.12
   NaSO4-          3.509e-03   2.526e-03    -2.455    -2.598    -0.143     20.23
   MgSO4           1.712e-03   2.026e-03    -2.766    -2.693     0.073     -0.40
   CaSO4           1.515e-03   1.572e-03    -2.820    -2.803     0.016      7.22
   SrSO4           3.870e-05   4.209e-05    -4.412    -4.376     0.037     24.24
   Mg(SO4)2-2      3.536e-05   1.121e-05    -4.452    -4.950    -0.499     46.83
   KSO4-           3.225e-05   2.687e-05    -4.491    -4.571    -0.079     31.49
   Na2SO4          1.957e-07   2.108e-07    -6.708    -6.676     0.032     47.96
   HSO4-           5.614e-09   4.103e-09    -8.251    -8.387    -0.136     40.79
   CaHSO4+         4.530e-10   3.310e-10    -9.344    -9.480    -0.136     (0)  
Sr            5.050e-04
   Sr+2            4.655e-04   1.285e-04    -3.332    -3.891    -0.559    -16.77
   SrSO4           3.870e-05   4.209e-05    -4.412    -4.376     0.037     24.24
   SrHCO3+         8.080e-07   5.737e-07    -6.093    -6.241    -0.149     (0)  
   SrCO3           4.109e-08   4.470e-08    -7.386    -7.350     0.037    -14.13
   SrOH+           3.709e-10   2.597e-10    -9.431    -9.585    -0.155     (0)  

------------------------------Saturation indices-------------------------------

  Phase               SI** log IAP   log K(298 K,   1 atm)

  Anhydrite        -0.63     -4.95   -4.31  CaSO4
  Aragonite        -0.10     -8.44   -8.34  CaCO3
  Arcanite         -6.85     -8.73   -1.88  K2SO4
  Calcite           0.01     -8.44   -8.45  CaCO3
  Celestite        -0.01     -6.67   -6.66  SrSO4
  CO2(g)           -3.31     -4.78   -1.47  CO2
  Dolomite          0.05    -17.04  -17.08  CaMg(CO3)2
  Epsomite         -3.40     -5.14   -1.74  MgSO4:7H2O
  Gypsum           -0.41     -4.96   -4.55  CaSO4:2H2O
  H2(g)           -41.14    -44.24   -3.10  H2
  H2O(g)           -1.51     -0.00    1.50  H2O
  Halite           -3.03     -1.46    1.57  NaCl
  Hexahydrite      -3.57     -5.14   -1.57  MgSO4:6H2O
  Kieserite        -3.95     -5.12   -1.16  MgSO4:H2O
  Mirabilite       -3.65     -4.35   -0.71  Na2SO4:10H2O
  O2(g)            -1.00     -3.89   -2.89  O2	 Pressure   0.1 atm, phi 1.000
  Strontianite     -0.88    -10.15   -9.27  SrCO3
  Sylvite          -4.57     -3.67    0.90  KCl
  Thenardite       -4.96     -4.31    0.65  Na2SO4

**For a gas, SI = log10(fugacity). Fugacity = pressure * phi / 1 atm.
  For ideal gases, phi = 1.

-------------------------------------------------------
Beginning of initial exchange-composition calculations.
-------------------------------------------------------

Exchange 6.	

X                1.000e+00 mol

	                               Equiv-    Equivalent      Log 
	Species             Moles      alents      Fraction     Gamma

	NaX               3.915e-01   3.915e-01   3.915e-01    -0.140
	CaX2              2.100e-01   4.199e-01   4.199e-01    -0.558
	MgX2              8.254e-02   1.651e-01   1.651e-01    -0.516
	KX                1.309e-02   1.309e-02   1.309e-02    -0.176
	SrX2              5.186e-03   1.037e-02   1.037e-02    -0.559
Y                1.000e+00 mol

	                               Equiv-    Equivalent      Log 
	Species             Moles      alents      Fraction     Gamma

	CaY               5.910e-01   1.182e+00   5.910e-01     0.000
	Na2Y              4.090e-01   8.180e-01   4.090e-01     0.000

----------------------------------User print-----------------------------------


-----------------------------------------
Beginning of batch-reaction calculations.
-----------------------------------------

Reaction step 1.

Using solution 1.	
Using exchange 6.	Exchange assemblage after simulation 1.

----------------------------------User print-----------------------------------

 on X...   1.0000e+00   3.9152e-01 
 on Y...   1.0000e+00   4.0898e-01 

-----------------------------Exchange composition------------------------------

X                1.000e+00 mol

	                               Equiv-    Equivalent      Log 
	Species             Moles      alents      Fraction     Gamma

	NaX               3.915e-01   3.915e-01   3.915e-01    -0.140
	CaX2              2.100e-01   4.199e-01   4.199e-01    -0.558
	MgX2              8.254e-02   1.651e-01   1.651e-01    -0.516
	KX                1.309e-02   1.309e-02   1.309e-02    -0.176
	SrX2              5.186e-03   1.037e-02   1.037e-02    -0.559
Y                1.000e+00 mol

	                               Equiv-    Equivalent      Log 
	Species             Moles      alents      Fraction     Gamma

	CaY               5.910e-01   1.182e+00   5.910e-01     0.000
	Na2Y              4.090e-01   8.180e-01   4.090e-01     0.000

-----------------------------Solution composition------------------------------

	Elements           Molality       Moles

	C                 4.802e-04   4.802e-04
	Ca                2.580e-02   2.580e-02
	Cl                3.000e-01   3.000e-01
	K                 1.610e-03   1.610e-03
	Mg                1.690e-02   1.690e-02
	Na                2.400e-01   2.400e-01
	S                 1.410e-02   1.410e-02
	Sr                5.050e-04   5.050e-04

----------------------------Description of solution----------------------------

                                       pH  =   7.600      Charge balance
                                       pe  =  12.945      Adjusted to redox equilibrium
      Specific Conductance (µS/cm,  25°C)  = 30291
                          Density (g/cm³)  =   1.01114
                               Volume (L)  =   1.00787
                        Viscosity (mPa s)  =   0.92501
                        Activity of water  =   0.990
                 Ionic strength (mol/kgw)  =   3.653e-01
                       Mass of water (kg)  =   1.000e+00
                 Total alkalinity (eq/kg)  =   4.760e-04
                       Total CO2 (mol/kg)  =   4.802e-04
                         Temperature (°C)  =  25.00
                  Electrical balance (eq)  =  -6.560e-04
 Percent error, 100*(Cat-|An|)/(Cat+|An|)  =  -0.10
                               Iterations  =   7
                                  Total H  = 1.110129e+02
                                  Total O  = 5.556428e+01

----------------------------Distribution of species----------------------------

                                               Log       Log       Log    mole V
   Species          Molality    Activity  Molality  Activity     Gamma   cm³/mol

   OH-             6.063e-07   3.989e-07    -6.217    -6.399    -0.182     -3.17
   H+              3.240e-08   2.512e-08    -7.489    -7.600    -0.111      0.00
   H2O             5.551e+01   9.899e-01     1.744    -0.004     0.000     18.07
C(-4)         0.000e+00
   CH4             0.000e+00   0.000e+00  -144.774  -144.737     0.037     35.46
C(4)          4.802e-04
   HCO3-           4.084e-04   2.918e-04    -3.389    -3.535    -0.146     26.73
   MgHCO3+         2.336e-05   1.573e-05    -4.631    -4.803    -0.172      5.77
   NaHCO3          2.175e-05   2.469e-05    -4.663    -4.607     0.055     17.66
   CO2             1.575e-05   1.665e-05    -4.803    -4.779     0.024     34.79
   CaCO3           5.647e-06   6.142e-06    -5.248    -5.212     0.037    -14.60
   MgCO3           2.202e-06   2.395e-06    -5.657    -5.621     0.037    -17.09
   CO3-2           2.145e-06   5.449e-07    -5.669    -6.264    -0.595     -1.79
   SrHCO3+         8.080e-07   5.737e-07    -6.093    -6.241    -0.149     (0)  
   KHCO3           1.260e-07   1.370e-07    -6.900    -6.863     0.037     21.42
   SrCO3           4.109e-08   4.470e-08    -7.386    -7.350     0.037    -14.13
   CaHCO3+         2.374e-10   1.717e-10    -9.625    -9.765    -0.141      9.92
   (CO2)2          4.263e-12   4.506e-12   -11.370   -11.346     0.024     68.75
Ca            2.580e-02
   Ca+2            2.428e-02   6.710e-03    -1.615    -2.173    -0.558    -16.98
   CaSO4           1.515e-03   1.572e-03    -2.820    -2.803     0.016      7.22
   CaCO3           5.647e-06   6.142e-06    -5.248    -5.212     0.037    -14.60
   CaOH+           6.006e-08   4.389e-08    -7.221    -7.358    -0.136     (0)  
   CaHSO4+         4.530e-10   3.310e-10    -9.344    -9.480    -0.136     (0)  
   CaHCO3+         2.374e-10   1.717e-10    -9.625    -9.765    -0.141      9.92
Cl            3.000e-01
   Cl-             3.000e-01   2.015e-01    -0.523    -0.696    -0.173     18.60
   HCl             1.219e-09   1.743e-09    -8.914    -8.759     0.155     20.36
H(0)          0.000e+00
   H2              0.000e+00   0.000e+00   -44.278   -44.239     0.038     14.99
K             1.610e-03
   K+              1.578e-03   1.051e-03    -2.802    -2.978    -0.176      9.47
   KSO4-           3.225e-05   2.687e-05    -4.491    -4.571    -0.079     31.49
   KHCO3           1.260e-07   1.370e-07    -6.900    -6.863     0.037     21.42
Mg            1.690e-02
   Mg+2            1.513e-02   4.606e-03    -1.820    -2.337    -0.516    -20.70
   MgSO4           1.712e-03   2.026e-03    -2.766    -2.693     0.073     -0.40
   Mg(SO4)2-2      3.536e-05   1.121e-05    -4.452    -4.950    -0.499     46.83
   MgHCO3+         2.336e-05   1.573e-05    -4.631    -4.803    -0.172      5.77
   MgCO3           2.202e-06   2.395e-06    -5.657    -5.621     0.037    -17.09
   MgOH+           8.986e-07   6.591e-07    -6.046    -6.181    -0.135     (0)  
Na            2.400e-01
   Na+             2.365e-01   1.712e-01    -0.626    -0.767    -0.140     -0.75
   NaSO4-          3.509e-03   2.526e-03    -2.455    -2.598    -0.143     20.23
   NaHCO3          2.175e-05   2.469e-05    -4.663    -4.607     0.055     17.66
   Na2SO4          1.957e-07   2.108e-07    -6.708    -6.676     0.032     47.96
O(0)          2.356e-04
   O2              1.178e-04   1.281e-04    -3.929    -3.892     0.037     30.40
S(-2)         0.000e+00
   HS-             0.000e+00   0.000e+00  -140.883  -141.065    -0.182     21.14
   H2S             0.000e+00   0.000e+00  -141.760  -141.723     0.037     36.27
   S-2             0.000e+00   0.000e+00  -145.764  -146.383    -0.619     (0)  
   (H2S)2          0.000e+00   0.000e+00  -284.761  -284.725     0.037     30.09
S(6)          1.410e-02
   SO4-2           7.222e-03   1.680e-03    -2.141    -2.775    -0.633     16.12
   NaSO4-          3.509e-03   2.526e-03    -2.455    -2.598    -0.143     20.23
   MgSO4           1.712e-03   2.026e-03    -2.766    -2.693     0.073     -0.40
   CaSO4           1.515e-03   1.572e-03    -2.820    -2.803     0.016      7.22
   SrSO4           3.870e-05   4.209e-05    -4.412    -4.376     0.037     24.24
   Mg(SO4)2-2      3.536e-05   1.121e-05    -4.452    -4.950    -0.499     46.83
   KSO4-           3.225e-05   2.687e-05    -4.491    -4.571    -0.079     31.49
   Na2SO4          1.957e-07   2.108e-07    -6.708    -6.676     0.032     47.96
   HSO4-           5.614e-09   4.103e-09    -8.251    -8.387    -0.136     40.79
   CaHSO4+         4.530e-10   3.310e-10    -9.344    -9.480    -0.136     (0)  
Sr            5.050e-04
   Sr+2            4.655e-04   1.285e-04    -3.332    -3.891    -0.559    -16.77
   SrSO4           3.870e-05   4.209e-05    -4.412    -4.376     0.037     24.24
   SrHCO3+         8.080e-07   5.737e-07    -6.093    -6.241    -0.149     (0)  
   SrCO3           4.109e-08   4.470e-08    -7.386    -7.350     0.037    -14.13
   SrOH+           3.709e-10   2.597e-10    -9.431    -9.585    -0.155     (0)  

------------------------------Saturation indices-------------------------------

  Phase               SI** log IAP   log K(298 K,   1 atm)

  Anhydrite        -0.63     -4.95   -4.31  CaSO4
  Aragonite        -0.10     -8.44   -8.34  CaCO3
  Arcanite         -6.85     -8.73   -1.88  K2SO4
  Calcite           0.01     -8.44   -8.45  CaCO3
  Celestite        -0.01     -6.67   -6.66  SrSO4
  CH4(g)         -141.94   -144.74   -2.80  CH4
  CO2(g)           -3.31     -4.78   -1.47  CO2
  Dolomite          0.05    -17.04  -17.08  CaMg(CO3)2
  Epsomite         -3.40     -5.14   -1.74  MgSO4:7H2O
  Gypsum           -0.41     -4.96   -4.55  CaSO4:2H2O
  H2(g)           -41.14    -44.24   -3.10  H2
  H2O(g)           -1.51     -0.00    1.50  H2O
  H2S(g)         -140.73   -148.67   -7.94  H2S
  Halite           -3.03     -1.46    1.57  NaCl
  Hexahydrite      -3.57     -5.14   -1.57  MgSO4:6H2O
  Kieserite        -3.95     -5.12   -1.16  MgSO4:H2O
  Mirabilite       -3.65     -4.35   -0.71  Na2SO4:10H2O
  O2(g)            -1.00     -3.89   -2.89  O2
  Strontianite     -0.88    -10.15   -9.27  SrCO3
  Sulfur         -105.52   -100.63    4.88  S
  Sylvite          -4.57     -3.67    0.90  KCl
  Thenardite       -4.96     -4.31    0.65  Na2SO4

**For a gas, SI = log10(fugacity). Fugacity = pressure * phi / 1 atm.
  For ideal gases, phi = 1.

------------------
End of simulation.
------------------

------------------------------------
Reading input data for simulation 2.
------------------------------------

