WARNING: Database file from DATABASE keyword is used; command line argument ignored.
   Input file: sys_sort
  Output file: sys_sort.out
Database file: ../database/phreeqc.dat

------------------
Reading data base.
------------------

	SOLUTION_MASTER_SPECIES
	SOLUTION_SPECIES
	PHASES
	GAS_BINARY_PARAMETERS
	EXCHANGE_MASTER_SPECIES
	EXCHANGE_SPECIES
	SURFACE_MASTER_SPECIES
	SURFACE_SPECIES
	MEAN_GAMMAS
	RATES
	END
------------------------------------
Reading input data for simulation 1.
------------------------------------

	DATABASE ../database/phreeqc.dat
	SELECTED_OUTPUT 101
	    file                sys_sort_101.sel
	USER_PUNCH 101
	    headings Mu SC
	    start
	10 PUNCH STR_F$(MU, 20, 12)
	20 PUNCH STR_F$(SC, 20, 10)
	    end
	SOLUTION 1
	Ca 1
	Mg 1
	C(4) 1 charge
	USER_PRINT
	start
	10 a = SYS("aq", counta , namea$ , typea$ , molesa)
	20 b = SYS("aq", countb , nameb$ , typeb$ , molesb, 0)
	30 c = SYS("aq", countc , namec$ , typec$ , molesc, 1)
	40 PRINT "Counts: ", counta, countb, countc
	100 FOR i = 1 TO counta 
	110   PRINT i, PAD$(namea$(i), 12), PAD$(nameb$(i), 12), PAD$(namec$(i), 12)
	120 NEXT i
	210 a = SYS("phases", counta , namea$ , typea$ , sia)
	220 b = SYS("phases", countb , nameb$ , typeb$ , sib, 0)
	230 c = SYS("phases", countc , namec$ , typec$ , sic, 1)
	240 PRINT "Counts: ", counta, countb, countc
	300 FOR i = 1 TO counta 
	310   PRINT i, PAD$(namea$(i), 12), PAD$(nameb$(i), 12), PAD$(namec$(i), 12)
	320 NEXT i
	end
	END
-------------------------------------------
Beginning of initial solution calculations.
-------------------------------------------

Initial solution 1.	

----------------------------------User print-----------------------------------

Counts:            16           16           16 
           1 HCO3-        HCO3-        (CO2)2       
           2 Ca+2         Ca+2         CO2          
           3 Mg+2         Mg+2         CO3-2        
           4 CO2          CO2          Ca+2         
           5 MgHCO3+      MgHCO3+      CaCO3        
           6 CO3-2        CO3-2        CaHCO3+      
           7 CaCO3        CaCO3        CaOH+        
           8 MgCO3        MgCO3        H+           
           9 OH-          OH-          H2           
          10 H+           H+           HCO3-        
          11 MgOH+        MgOH+        Mg+2         
          12 (CO2)2       (CO2)2       MgCO3        
          13 CaOH+        CaOH+        MgHCO3+      
          14 CaHCO3+      CaHCO3+      MgOH+        
          15 H2           H2           O2           
          16 O2           O2           OH-          
Counts:             7            7            7 
           1 Calcite      Calcite      Aragonite    
           2 Aragonite    Aragonite    CO2(g)       
           3 Dolomite     Dolomite     Calcite      
           4 H2O(g)       H2O(g)       Dolomite     
           5 CO2(g)       CO2(g)       H2(g)        
           6 H2(g)        H2(g)        H2O(g)       
           7 O2(g)        O2(g)        O2(g)        

-----------------------------Solution composition------------------------------

	Elements           Molality       Moles

	C(4)              4.815e-03   4.815e-03  Charge balance
	Ca                1.000e-03   1.000e-03
	Mg                1.000e-03   1.000e-03

----------------------------Description of solution----------------------------

                                       pH  =   7.000    
                                       pe  =   4.000    
      Specific Conductance (µS/cm,  25°C)  = 361
                          Density (g/cm³)  =   0.99730
                               Volume (L)  =   1.00305
                        Viscosity (mPa s)  =   0.89253
                        Activity of water  =   1.000
                 Ionic strength (mol/kgw)  =   5.927e-03
                       Mass of water (kg)  =   1.000e+00
                 Total alkalinity (eq/kg)  =   4.000e-03
                       Total CO2 (mol/kg)  =   4.815e-03
                         Temperature (°C)  =  25.00
                  Electrical balance (eq)  =  -9.664e-12
 Percent error, 100*(Cat-|An|)/(Cat+|An|)  =  -0.00
                               Iterations  =   7
                                  Total H  = 1.110164e+02
                                  Total O  = 5.551984e+01

----------------------------Distribution of species----------------------------

                                               Log       Log       Log    mole V
   Species          Molality    Activity  Molality  Activity     Gamma   cm³/mol

   OH-             1.100e-07   1.012e-07    -6.959    -6.995    -0.036     -4.06
   H+              1.076e-07   1.000e-07    -6.968    -7.000    -0.032      0.00
   H2O             5.551e+01   9.999e-01     1.744    -0.000     0.000     18.07
C(4)          4.815e-03
   HCO3-           3.956e-03   3.654e-03    -2.403    -2.437    -0.035     24.65
   CO2             8.209e-04   8.216e-04    -3.086    -3.085     0.000     34.79
   MgHCO3+         3.273e-05   3.015e-05    -4.485    -4.521    -0.036      5.51
   CO3-2           2.356e-06   1.714e-06    -5.628    -5.766    -0.138     -4.46
   CaCO3           2.086e-06   2.088e-06    -5.681    -5.680     0.001    -14.60
   MgCO3           1.152e-06   1.153e-06    -5.939    -5.938     0.001    -17.09
   (CO2)2          1.096e-08   1.097e-08    -7.960    -7.960     0.000     68.75
   CaHCO3+         2.514e-10   2.324e-10    -9.600    -9.634    -0.034      9.70
Ca            1.000e-03
   Ca+2            9.979e-04   7.255e-04    -3.001    -3.139    -0.138    -18.00
   CaCO3           2.086e-06   2.088e-06    -5.681    -5.680     0.001    -14.60
   CaOH+           1.307e-09   1.204e-09    -8.884    -8.919    -0.036     (0)  
   CaHCO3+         2.514e-10   2.324e-10    -9.600    -9.634    -0.034      9.70
H(0)          1.414e-25
   H2              7.069e-26   7.079e-26   -25.151   -25.150     0.001     14.99
Mg            1.000e-03
   Mg+2            9.661e-04   7.052e-04    -3.015    -3.152    -0.137    -21.68
   MgHCO3+         3.273e-05   3.015e-05    -4.485    -4.521    -0.036      5.51
   MgCO3           1.152e-06   1.153e-06    -5.939    -5.938     0.001    -17.09
   MgOH+           2.767e-08   2.560e-08    -7.558    -7.592    -0.034     (0)  
O(0)          0.000e+00
   O2              0.000e+00   0.000e+00   -42.063   -42.063     0.001     30.40

------------------------------Saturation indices-------------------------------

  Phase               SI** log IAP   log K(298 K,   1 atm)

  Aragonite        -0.57     -8.91   -8.34  CaCO3
  Calcite          -0.46     -8.91   -8.45  CaCO3
  CO2(g)           -1.62     -3.09   -1.47  CO2
  Dolomite         -0.74    -17.82  -17.08  CaMg(CO3)2
  H2(g)           -22.05    -25.15   -3.10  H2
  H2O(g)           -1.50     -0.00    1.50  H2O
  O2(g)           -39.17    -42.06   -2.89  O2

**For a gas, SI = log10(fugacity). Fugacity = pressure * phi / 1 atm.
  For ideal gases, phi = 1.

------------------
End of simulation.
------------------

------------------------------------
Reading input data for simulation 2.
------------------------------------

