WARNING: Database file from DATABASE keyword is used; command line argument ignored.
   Input file: sys_equi_fix
  Output file: sys_equi_fix.out
Database file: ../database/phreeqc.dat

------------------
Reading data base.
------------------

	SOLUTION_MASTER_SPECIES
	SOLUTION_SPECIES
	PHASES
	GAS_BINARY_PARAMETERS
	EXCHANGE_MASTER_SPECIES
	EXCHANGE_SPECIES
	SURFACE_MASTER_SPECIES
	SURFACE_SPECIES
	MEAN_GAMMAS
	RATES
	END
------------------------------------
Reading input data for simulation 1.
------------------------------------

	DATABASE ../database/phreeqc.dat
	SELECTED_OUTPUT 101
	    file                 sys_equi_fix_101.sel
	USER_PUNCH 101
	    headings Mu SC
	    start
	10 PUNCH STR_F$(MU, 20, 12)
	20 PUNCH STR_F$(SC, 20, 10)
	    end
	PHASES
	Fix_H+
	 H+ = H+
	 log_k 0.
	USER_PRINT
	10 totequi = SYS("equi",count,name$,t$,moles)
	20 IF (count <= 0) THEN 100
	30 FOR i = 1 TO count
	40    PRINT SIM_NO, STEP_NO, PAD(name$(i),20), PAD(t$(i),10), moles(i)
	50 NEXT I
	100 END
	SOLUTION 1
	units mol/kgw
	pH 7
	Ca 1e-1
	Cl 2e-1
	EQUILIBRIUM_PHASES
	Calcite 0 0
	CO2(g) -3.5 10
	Fix_H+ -10 NaOH
	SAVE solution 2
	SAVE equilibrium_phases 2
	END
-------------------------------------------
Beginning of initial solution calculations.
-------------------------------------------

Initial solution 1.	

----------------------------------User print-----------------------------------


-----------------------------Solution composition------------------------------

	Elements           Molality       Moles

	Ca                1.000e-01   1.000e-01
	Cl                2.000e-01   2.000e-01

----------------------------Description of solution----------------------------

                                       pH  =   7.000    
                                       pe  =   4.000    
      Specific Conductance (µS/cm,  25°C)  = 19352
                          Density (g/cm³)  =   1.00610
                               Volume (L)  =   1.00497
                        Viscosity (mPa s)  =   0.92331
                        Activity of water  =   0.995
                 Ionic strength (mol/kgw)  =   3.000e-01
                       Mass of water (kg)  =   1.000e+00
                 Total alkalinity (eq/kg)  =   8.318e-08
                         Temperature (°C)  =  25.00
                  Electrical balance (eq)  =  -8.318e-08
 Percent error, 100*(Cat-|An|)/(Cat+|An|)  =  -0.00
                               Iterations  =   4
                                  Total H  = 1.110124e+02
                                  Total O  = 5.550622e+01

----------------------------Distribution of species----------------------------

                                               Log       Log       Log    mole V
   Species          Molality    Activity  Molality  Activity     Gamma   cm³/mol

   OH-             1.494e-07   1.007e-07    -6.826    -6.997    -0.171     -3.29
   H+              1.278e-07   1.000e-07    -6.893    -7.000    -0.107      0.00
   H2O             5.551e+01   9.949e-01     1.744    -0.002     0.000     18.07
Ca            1.000e-01
   Ca+2            1.000e-01   2.892e-02    -1.000    -1.539    -0.539    -17.06
   CaOH+           6.511e-08   4.776e-08    -7.186    -7.321    -0.135     (0)  
Cl            2.000e-01
   Cl-             2.000e-01   1.371e-01    -0.699    -0.863    -0.164     18.55
   HCl             3.521e-09   4.724e-09    -8.453    -8.326     0.128     20.36
H(0)          1.317e-25
   H2              6.584e-26   7.079e-26   -25.182   -25.150     0.032     14.99
O(0)          0.000e+00
   O2              0.000e+00   0.000e+00   -42.097   -42.067     0.030     30.40

------------------------------Saturation indices-------------------------------

  Phase               SI** log IAP   log K(298 K,   1 atm)

  Fix_H+           -7.00     -7.00    0.00  H+
  H2(g)           -22.05    -25.15   -3.10  H2
  H2O(g)           -1.51     -0.00    1.50  H2O
  O2(g)           -39.17    -42.07   -2.89  O2

**For a gas, SI = log10(fugacity). Fugacity = pressure * phi / 1 atm.
  For ideal gases, phi = 1.

-----------------------------------------
Beginning of batch-reaction calculations.
-----------------------------------------

Reaction step 1.

Using solution 1.	
Using pure phase assemblage 1.	

----------------------------------User print-----------------------------------

           1            1 CO2(g)               equi         9.7240e+00 
           1            1 Fix_H+               equi         9.5227e+00 
           1            1 Calcite              equi         9.9994e-02 

-------------------------------Phase assemblage--------------------------------

                                                      Moles in assemblage
Phase               SI  log IAP  log K(T, P)   Initial       Final       Delta

CO2(g)           -3.50    -4.97     -1.47    1.000e+01   9.724e+00  -2.760e-01
Calcite           0.00    -8.45     -8.45    0.000e+00   9.999e-02   9.999e-02
Fix_H+          -10.00   -10.00      0.00
	 NaOH               is reactant       1.000e+01   9.523e+00  -4.773e-01

-----------------------------Solution composition------------------------------

	Elements           Molality       Moles

	C                 1.754e-01   1.760e-01
	Ca                5.885e-06   5.906e-06
	Cl                1.993e-01   2.000e-01
	Na                4.756e-01   4.773e-01

----------------------------Description of solution----------------------------

                                       pH  =  10.000      Charge balance
                                       pe  =   7.763      Adjusted to redox equilibrium
      Specific Conductance (µS/cm,  25°C)  = 35677
                          Density (g/cm³)  =   1.02011
                               Volume (L)  =   1.01198
                        Viscosity (mPa s)  =   0.96261
                        Activity of water  =   0.986
                 Ionic strength (mol/kgw)  =   5.699e-01
                       Mass of water (kg)  =   1.004e+00
                 Total alkalinity (eq/kg)  =   2.763e-01
                       Total CO2 (mol/kg)  =   1.754e-01
                         Temperature (°C)  =  25.00
                  Electrical balance (eq)  =  -8.318e-08
 Percent error, 100*(Cat-|An|)/(Cat+|An|)  =  -0.00
                               Iterations  =  23
                                  Total H  = 1.114897e+02
                                  Total O  = 5.623562e+01

----------------------------Distribution of species----------------------------

                                               Log       Log       Log    mole V
   Species          Molality    Activity  Molality  Activity     Gamma   cm³/mol

   OH-             1.604e-04   9.976e-05    -3.795    -4.001    -0.206     -2.80
   H+              1.316e-10   1.000e-10    -9.881   -10.000    -0.119      0.00
   H2O             5.551e+01   9.857e-01     1.744    -0.006     0.000     18.07
C(-4)         0.000e+00
   CH4             0.000e+00   0.000e+00  -122.726  -122.669     0.057     35.46
C(4)          1.754e-01
   CO3-2           1.008e-01   2.212e-02    -0.997    -1.655    -0.658     -1.01
   HCO3-           6.821e-02   4.717e-02    -1.166    -1.326    -0.160     27.60
   NaHCO3          6.431e-03   7.840e-03    -2.192    -2.106     0.086     17.66
   CO2             9.868e-06   1.076e-05    -5.006    -4.968     0.038     34.79
   CaCO3           5.252e-06   5.989e-06    -5.280    -5.223     0.057    -14.60
   (CO2)2          1.726e-12   1.882e-12   -11.763   -11.725     0.038     68.75
   CaHCO3+         9.518e-13   6.665e-13   -12.021   -12.176    -0.155      9.95
Ca            5.885e-06
   CaCO3           5.252e-06   5.989e-06    -5.280    -5.223     0.057    -14.60
   Ca+2            6.321e-07   1.611e-07    -6.199    -6.793    -0.594    -16.78
   CaOH+           3.574e-10   2.636e-10    -9.447    -9.579    -0.132     (0)  
   CaHCO3+         9.518e-13   6.665e-13   -12.021   -12.176    -0.155      9.95
Cl            1.993e-01
   Cl-             1.993e-01   1.278e-01    -0.701    -0.893    -0.193     18.73
   HCl             2.518e-12   4.402e-12   -11.599   -11.356     0.243     20.36
H(0)          3.674e-39
   H2              1.837e-39   2.109e-39   -38.736   -38.676     0.060     14.99
Na            4.756e-01
   Na+             4.692e-01   3.362e-01    -0.329    -0.473    -0.145     -0.58
   NaHCO3          6.431e-03   7.840e-03    -2.192    -2.106     0.086     17.66
O(0)          1.663e-15
   O2              8.315e-16   9.481e-16   -15.080   -15.023     0.057     30.40

------------------------------Saturation indices-------------------------------

  Phase               SI** log IAP   log K(298 K,   1 atm)

  Aragonite        -0.11     -8.45   -8.34  CaCO3
  Calcite           0.00     -8.45   -8.45  CaCO3
  CH4(g)         -119.87   -122.67   -2.80  CH4
  CO2(g)           -3.50     -4.97   -1.47  CO2	 Pressure   0.0 atm, phi 1.000
  Fix_H+          -10.00    -10.00    0.00  H+
  H2(g)           -35.58    -38.68   -3.10  H2
  H2O(g)           -1.51     -0.01    1.50  H2O
  Halite           -2.94     -1.37    1.57  NaCl
  O2(g)           -12.13    -15.02   -2.89  O2

**For a gas, SI = log10(fugacity). Fugacity = pressure * phi / 1 atm.
  For ideal gases, phi = 1.

------------------
End of simulation.
------------------

------------------------------------
Reading input data for simulation 2.
------------------------------------

	USE solution 2
	USE equilibrium_phases 2
	EQUILIBRIUM_PHASES
	Calcite 0 0
	CO2(g) -3.5 10
	Fix_H+ -10 NaOH
	END
-----------------------------------------
Beginning of batch-reaction calculations.
-----------------------------------------

Reaction step 1.

Using solution 2.	Solution after simulation 1.
Using pure phase assemblage 2.	Pure-phase assemblage after simulation 1.

----------------------------------User print-----------------------------------

           2            1 CO2(g)               equi         9.7240e+00 
           2            1 Fix_H+               equi         9.5227e+00 
           2            1 Calcite              equi         9.9994e-02 

-------------------------------Phase assemblage--------------------------------

                                                      Moles in assemblage
Phase               SI  log IAP  log K(T, P)   Initial       Final       Delta

CO2(g)           -3.50    -4.97     -1.47    9.724e+00   9.724e+00   0.000e+00
Calcite           0.00    -8.45     -8.45    9.999e-02   9.999e-02   0.000e+00
Fix_H+          -10.00   -10.00      0.00
	 NaOH               is reactant       9.523e+00   9.523e+00   0.000e+00

-----------------------------Solution composition------------------------------

	Elements           Molality       Moles

	C                 1.754e-01   1.760e-01
	Ca                5.885e-06   5.906e-06
	Cl                1.993e-01   2.000e-01
	Na                4.756e-01   4.773e-01

----------------------------Description of solution----------------------------

                                       pH  =  10.000      Charge balance
                                       pe  =   8.160      Adjusted to redox equilibrium
      Specific Conductance (µS/cm,  25°C)  = 35677
                          Density (g/cm³)  =   1.02011
                               Volume (L)  =   1.01198
                        Viscosity (mPa s)  =   0.96261
                        Activity of water  =   0.986
                 Ionic strength (mol/kgw)  =   5.699e-01
                       Mass of water (kg)  =   1.004e+00
                 Total alkalinity (eq/kg)  =   2.763e-01
                       Total CO2 (mol/kg)  =   1.754e-01
                         Temperature (°C)  =  25.00
                  Electrical balance (eq)  =  -8.318e-08
 Percent error, 100*(Cat-|An|)/(Cat+|An|)  =  -0.00
                               Iterations  =   1
                                  Total H  = 1.114897e+02
                                  Total O  = 5.623562e+01

----------------------------Distribution of species----------------------------

                                               Log       Log       Log    mole V
   Species          Molality    Activity  Molality  Activity     Gamma   cm³/mol

   OH-             1.604e-04   9.976e-05    -3.795    -4.001    -0.206     -2.80
   H+              1.316e-10   1.000e-10    -9.881   -10.000    -0.119      0.00
   H2O             5.551e+01   9.857e-01     1.744    -0.006     0.000     18.07
C(-4)         0.000e+00
   CH4             0.000e+00   0.000e+00  -125.900  -125.843     0.057     35.46
C(4)          1.754e-01
   CO3-2           1.008e-01   2.212e-02    -0.997    -1.655    -0.658     -1.01
   HCO3-           6.821e-02   4.717e-02    -1.166    -1.326    -0.160     27.60
   NaHCO3          6.431e-03   7.840e-03    -2.192    -2.106     0.086     17.66
   CO2             9.868e-06   1.076e-05    -5.006    -4.968     0.038     34.79
   CaCO3           5.252e-06   5.989e-06    -5.280    -5.223     0.057    -14.60
   (CO2)2          1.726e-12   1.882e-12   -11.763   -11.725     0.038     68.75
   CaHCO3+         9.518e-13   6.665e-13   -12.021   -12.176    -0.155      9.95
Ca            5.885e-06
   CaCO3           5.252e-06   5.989e-06    -5.280    -5.223     0.057    -14.60
   Ca+2            6.321e-07   1.611e-07    -6.199    -6.793    -0.594    -16.78
   CaOH+           3.574e-10   2.636e-10    -9.447    -9.579    -0.132     (0)  
   CaHCO3+         9.518e-13   6.665e-13   -12.021   -12.176    -0.155      9.95
Cl            1.993e-01
   Cl-             1.993e-01   1.278e-01    -0.701    -0.893    -0.193     18.73
   HCl             2.518e-12   4.402e-12   -11.599   -11.356     0.243     20.36
H(0)          5.911e-40
   H2              2.956e-40   3.392e-40   -39.529   -39.469     0.060     14.99
Na            4.756e-01
   Na+             4.692e-01   3.362e-01    -0.329    -0.473    -0.145     -0.58
   NaHCO3          6.431e-03   7.840e-03    -2.192    -2.106     0.086     17.66
O(0)          6.426e-14
   O2              3.213e-14   3.663e-14   -13.493   -13.436     0.057     30.40

------------------------------Saturation indices-------------------------------

  Phase               SI** log IAP   log K(298 K,   1 atm)

  Aragonite        -0.11     -8.45   -8.34  CaCO3
  Calcite           0.00     -8.45   -8.45  CaCO3
  CH4(g)         -123.04   -125.84   -2.80  CH4
  CO2(g)           -3.50     -4.97   -1.47  CO2	 Pressure   0.0 atm, phi 1.000
  Fix_H+          -10.00    -10.00    0.00  H+
  H2(g)           -36.37    -39.47   -3.10  H2
  H2O(g)           -1.51     -0.01    1.50  H2O
  Halite           -2.94     -1.37    1.57  NaCl
  O2(g)           -10.54    -13.44   -2.89  O2

**For a gas, SI = log10(fugacity). Fugacity = pressure * phi / 1 atm.
  For ideal gases, phi = 1.

------------------
End of simulation.
------------------

------------------------------------
Reading input data for simulation 3.
------------------------------------

