WARNING: Database file from DATABASE keyword is used; command line argument ignored.
   Input file: t922
  Output file: t922.out
Database file: ../database/phreeqc.dat

------------------
Reading data base.
------------------

	SOLUTION_MASTER_SPECIES
	SOLUTION_SPECIES
	PHASES
	GAS_BINARY_PARAMETERS
	EXCHANGE_MASTER_SPECIES
	EXCHANGE_SPECIES
	SURFACE_MASTER_SPECIES
	SURFACE_SPECIES
	MEAN_GAMMAS
	RATES
	END
------------------------------------
Reading input data for simulation 1.
------------------------------------

	DATABASE ../database/phreeqc.dat
	SELECTED_OUTPUT 101
	    file                 t922_101.sel
	USER_PUNCH 101
	    headings Mu SC
	    start
	10 PUNCH STR_F$(MU, 20, 12)
	20 PUNCH STR_F$(SC, 20, 10)
	    end
	knobs
		logfile
	TITLE  No_conv
	SOLUTION 1-2
	        temp    20.
	        units   mol/kgw
	        pH      8.292
	        pe      -4.483
	        Mg      5.0e-3 
	        Cl     10.0e-3
	        C(4)    2.372e-3
	        Ca      3.715e-4
	EQUILIBRIUM_PHASES 1-2
	Goethite    3.0   0.1
	SAVE solution 1-2
	END
-----
TITLE
-----

  No_conv

-------------------------------------------
Beginning of initial solution calculations.
-------------------------------------------

Initial solution 1.	

-----------------------------Solution composition------------------------------

	Elements           Molality       Moles

	C(4)              2.372e-03   2.372e-03
	Ca                3.715e-04   3.715e-04
	Cl                1.000e-02   1.000e-02
	Mg                5.000e-03   5.000e-03

----------------------------Description of solution----------------------------

                                       pH  =   8.292    
                                       pe  =  -4.483    
      Specific Conductance (µS/cm,  20°C)  = 1126
                          Density (g/cm³)  =   0.99871
                               Volume (L)  =   1.00192
                        Viscosity (mPa s)  =   1.00603
                        Activity of water  =   1.000
                 Ionic strength (mol/kgw)  =   1.668e-02
                       Mass of water (kg)  =   1.000e+00
                 Total alkalinity (eq/kg)  =   2.425e-03
                       Total CO2 (mol/kg)  =   2.372e-03
                         Temperature (°C)  =  20.00
                  Electrical balance (eq)  =  -1.682e-03
 Percent error, 100*(Cat-|An|)/(Cat+|An|)  =  -7.37
                               Iterations  =   7
                                  Total H  = 1.110147e+02
                                  Total O  = 5.551331e+01

----------------------------Distribution of species----------------------------

                                               Log       Log       Log    mole V
   Species          Molality    Activity  Molality  Activity     Gamma   cm³/mol

   OH-             1.528e-06   1.341e-06    -5.816    -5.873    -0.057     -4.22
   H+              5.692e-09   5.105e-09    -8.245    -8.292    -0.047      0.00
   H2O             5.551e+01   9.997e-01     1.744    -0.000     0.000     18.05
C(4)          2.372e-03
   HCO3-           2.197e-03   1.945e-03    -2.658    -2.711    -0.053     24.35
   MgHCO3+         7.659e-05   6.734e-05    -4.116    -4.172    -0.056      5.40
   MgCO3           4.262e-05   4.279e-05    -4.370    -4.369     0.002    -17.08
   CO3-2           2.618e-05   1.604e-05    -4.582    -4.795    -0.213     -4.72
   CO2             2.386e-05   2.392e-05    -4.622    -4.621     0.001     34.56
   CaCO3           5.495e-06   5.516e-06    -5.260    -5.258     0.002    -14.62
   CaHCO3+         1.433e-11   1.271e-11   -10.844   -10.896    -0.052      9.53
   (CO2)2          7.123e-12   7.141e-12   -11.147   -11.146     0.001     68.28
Ca            3.715e-04
   Ca+2            3.660e-04   2.242e-04    -3.437    -3.649    -0.213    -17.92
   CaCO3           5.495e-06   5.516e-06    -5.260    -5.258     0.002    -14.62
   CaOH+           8.275e-09   7.285e-09    -8.082    -8.138    -0.055     (0)  
   CaHCO3+         1.433e-11   1.271e-11   -10.844   -10.896    -0.052      9.53
Cl            1.000e-02
   Cl-             1.000e-02   8.783e-03    -2.000    -2.056    -0.056     17.99
   HCl             1.568e-11   1.593e-11   -10.805   -10.798     0.007     19.99
H(0)          3.575e-11
   H2              1.787e-11   1.795e-11   -10.748   -10.746     0.002     14.60
Mg            5.000e-03
   Mg+2            4.879e-03   3.018e-03    -2.312    -2.520    -0.209    -21.36
   MgHCO3+         7.659e-05   6.734e-05    -4.116    -4.172    -0.056      5.40
   MgCO3           4.262e-05   4.279e-05    -4.370    -4.369     0.002    -17.08
   MgOH+           1.525e-06   1.356e-06    -5.817    -5.868    -0.051     (0)  
O(0)          0.000e+00
   O2              0.000e+00   0.000e+00   -72.562   -72.560     0.002     29.98

------------------------------Saturation indices-------------------------------

  Phase               SI** log IAP   log K(293 K,   1 atm)

  Aragonite        -0.14     -8.44   -8.31  CaCO3
  Calcite          -0.03     -8.44   -8.41  CaCO3
  CO2(g)           -3.21     -4.62   -1.41  CO2
  Dolomite          1.24    -15.76  -17.00  CaMg(CO3)2
  H2(g)            -7.66    -10.75   -3.09  H2
  H2O(g)           -1.63     -0.00    1.63  H2O
  O2(g)           -69.71    -72.56   -2.85  O2

**For a gas, SI = log10(fugacity). Fugacity = pressure * phi / 1 atm.
  For ideal gases, phi = 1.

-----------------------------------------
Beginning of batch-reaction calculations.
-----------------------------------------

Reaction step 1.

Using solution 1.	
Using pure phase assemblage 1.	

-------------------------------Phase assemblage--------------------------------

                                                      Moles in assemblage
Phase               SI  log IAP  log K(T, P)   Initial       Final       Delta

Goethite          3.00     2.18     -0.82    1.000e-01   1.000e-01  -6.065e-11

-----------------------------Solution composition------------------------------

	Elements           Molality       Moles

	C                 2.372e-03   2.372e-03
	Ca                3.715e-04   3.715e-04
	Cl                1.000e-02   1.000e-02
	Fe                6.065e-11   6.065e-11
	Mg                5.000e-03   5.000e-03

----------------------------Description of solution----------------------------

                                       pH  =   8.292      Charge balance
                                       pe  =   1.251      Adjusted to redox equilibrium
      Specific Conductance (µS/cm,  20°C)  = 1126
                          Density (g/cm³)  =   0.99871
                               Volume (L)  =   1.00192
                        Viscosity (mPa s)  =   1.00603
                        Activity of water  =   1.000
                 Ionic strength (mol/kgw)  =   1.668e-02
                       Mass of water (kg)  =   1.000e+00
                 Total alkalinity (eq/kg)  =   2.425e-03
                       Total CO2 (mol/kg)  =   2.372e-03
                         Temperature (°C)  =  20.00
                  Electrical balance (eq)  =  -1.682e-03
 Percent error, 100*(Cat-|An|)/(Cat+|An|)  =  -7.37
                               Iterations  =  13
                                  Total H  = 1.110147e+02
                                  Total O  = 5.551331e+01

----------------------------Distribution of species----------------------------

                                               Log       Log       Log    mole V
   Species          Molality    Activity  Molality  Activity     Gamma   cm³/mol

   OH-             1.528e-06   1.341e-06    -5.816    -5.873    -0.057     -4.22
   H+              5.692e-09   5.105e-09    -8.245    -8.292    -0.047      0.00
   H2O             5.551e+01   9.997e-01     1.744    -0.000     0.000     18.05
C(-4)         0.000e+00
   CH4             0.000e+00   0.000e+00   -55.892   -55.890     0.002     35.01
C(4)          2.372e-03
   HCO3-           2.197e-03   1.945e-03    -2.658    -2.711    -0.053     24.35
   MgHCO3+         7.659e-05   6.734e-05    -4.116    -4.172    -0.056      5.40
   MgCO3           4.262e-05   4.279e-05    -4.370    -4.369     0.002    -17.08
   CO3-2           2.618e-05   1.604e-05    -4.582    -4.795    -0.213     -4.72
   CO2             2.386e-05   2.392e-05    -4.622    -4.621     0.001     34.56
   CaCO3           5.495e-06   5.516e-06    -5.260    -5.258     0.002    -14.62
   CaHCO3+         1.433e-11   1.271e-11   -10.844   -10.896    -0.052      9.53
   (CO2)2          7.123e-12   7.141e-12   -11.147   -11.146     0.001     68.28
   FeCO3           6.007e-12   6.031e-12   -11.221   -11.220     0.002     (0)  
   FeHCO3+         3.461e-12   3.047e-12   -11.461   -11.516    -0.055     (0)  
Ca            3.715e-04
   Ca+2            3.660e-04   2.242e-04    -3.437    -3.649    -0.213    -17.92
   CaCO3           5.495e-06   5.516e-06    -5.260    -5.258     0.002    -14.62
   CaOH+           8.275e-09   7.285e-09    -8.082    -8.138    -0.055     (0)  
   CaHCO3+         1.433e-11   1.271e-11   -10.844   -10.896    -0.052      9.53
Cl            1.000e-02
   Cl-             1.000e-02   8.783e-03    -2.000    -2.056    -0.056     17.99
   HCl             1.568e-11   1.593e-11   -10.805   -10.798     0.007     19.99
   FeCl+           2.158e-13   1.900e-13   -12.666   -12.721    -0.055     (0)  
   FeCl+2          7.492e-24   4.560e-24   -23.125   -23.341    -0.216     (0)  
   FeCl2+          2.380e-25   2.102e-25   -24.623   -24.677    -0.054     (0)  
   FeCl3           1.839e-28   1.846e-28   -27.735   -27.734     0.002     (0)  
Fe(2)         3.576e-11
   Fe+2            2.532e-11   1.567e-11   -10.597   -10.805    -0.208    -22.19
   FeCO3           6.007e-12   6.031e-12   -11.221   -11.220     0.002     (0)  
   FeHCO3+         3.461e-12   3.047e-12   -11.461   -11.516    -0.055     (0)  
   FeOH+           7.514e-13   6.636e-13   -12.124   -12.178    -0.054     (0)  
   FeCl+           2.158e-13   1.900e-13   -12.666   -12.721    -0.055     (0)  
   Fe(OH)2         7.080e-16   7.107e-16   -15.150   -15.148     0.002     (0)  
   Fe(OH)3-        5.569e-18   4.919e-18   -17.254   -17.308    -0.054     (0)  
Fe(3)         2.489e-11
   Fe(OH)3         2.038e-11   2.046e-11   -10.691   -10.689     0.002     (0)  
   Fe(OH)4-        3.366e-12   2.978e-12   -11.473   -11.526    -0.053     (0)  
   Fe(OH)2+        1.144e-12   1.012e-12   -11.942   -11.995    -0.053     (0)  
   FeOH+2          3.110e-17   1.893e-17   -16.507   -16.723    -0.216     (0)  
   Fe+3            5.383e-23   2.020e-23   -22.269   -22.695    -0.426     (0)  
   FeCl+2          7.492e-24   4.560e-24   -23.125   -23.341    -0.216     (0)  
   FeCl2+          2.380e-25   2.102e-25   -24.623   -24.677    -0.054     (0)  
   FeCl3           1.839e-28   1.846e-28   -27.735   -27.734     0.002     (0)  
   Fe2(OH)2+4      9.134e-32   1.190e-32   -31.039   -31.924    -0.885     (0)  
   Fe3(OH)4+5      0.000e+00   0.000e+00   -40.012   -41.395    -1.383     (0)  
H(0)          1.216e-22
   H2              6.079e-23   6.103e-23   -22.216   -22.214     0.002     14.60
Mg            5.000e-03
   Mg+2            4.879e-03   3.018e-03    -2.312    -2.520    -0.209    -21.36
   MgHCO3+         7.659e-05   6.734e-05    -4.116    -4.172    -0.056      5.40
   MgCO3           4.262e-05   4.279e-05    -4.370    -4.369     0.002    -17.08
   MgOH+           1.525e-06   1.356e-06    -5.817    -5.868    -0.051     (0)  
O(0)          0.000e+00
   O2              0.000e+00   0.000e+00   -49.625   -49.623     0.002     29.98

------------------------------Saturation indices-------------------------------

  Phase               SI** log IAP   log K(293 K,   1 atm)

  Aragonite        -0.14     -8.44   -8.31  CaCO3
  Calcite          -0.03     -8.44   -8.41  CaCO3
  CH4(g)          -53.14    -55.89   -2.75  CH4
  CO2(g)           -3.21     -4.62   -1.41  CO2
  Dolomite          1.24    -15.76  -17.00  CaMg(CO3)2
  Fe(OH)3(a)       -2.71      2.18    4.89  Fe(OH)3
  Goethite          3.00      2.18   -0.82  FeOOH
  H2(g)           -19.13    -22.21   -3.09  H2
  H2O(g)           -1.63     -0.00    1.63  H2O
  Hematite          7.98      4.36   -3.62  Fe2O3
  O2(g)           -46.77    -49.62   -2.85  O2
  Siderite         -4.74    -15.60  -10.86  FeCO3

**For a gas, SI = log10(fugacity). Fugacity = pressure * phi / 1 atm.
  For ideal gases, phi = 1.

------------------
End of simulation.
------------------

------------------------------------
Reading input data for simulation 2.
------------------------------------

	USE solution 1
	EXCHANGE 1-2
		equilibrate  1
	        X      0.125
	SURFACE 1-2
		Hfo_w    1.0e-2  600  8.8
		equilibrate  1
	SAVE surface 1-2
	SAVE exchange 1-2
	END
-------------------------------------------------------
Beginning of initial exchange-composition calculations.
-------------------------------------------------------

Exchange 1.	

X                1.250e-01 mol

	                               Equiv-    Equivalent      Log 
	Species             Moles      alents      Fraction     Gamma

	MgX2              5.585e-02   1.117e-01   8.936e-01    -0.209
	CaX2              6.649e-03   1.330e-02   1.064e-01    -0.213
	FeX2              2.110e-10   4.220e-10   3.376e-09    -0.208

------------------------------------------------------
Beginning of initial surface-composition calculations.
------------------------------------------------------

Surface 1.	

Diffuse Double Layer Surface-Complexation Model

Hfo           
	  7.306e-04  Surface charge, eq
	  1.335e-02  sigma, C/m²
	  4.005e-02  psi, V
	 -1.586e+00  -F*psi/RT
	  2.048e-01  exp(-F*psi/RT)
	  6.000e+02  specific area, m²/g
	  5.280e+03  m² for   8.800e+00 g


Hfo_w         
	  1.000e-02  moles
	                                   Mole                     Log
	Species               Moles    Fraction    Molality    Molality

	Hfo_wOMg+         4.456e-03       0.446   4.456e-03      -2.351
	Hfo_wCO3-         2.128e-03       0.213   2.128e-03      -2.672
	Hfo_wO-           1.646e-03       0.165   1.646e-03      -2.783
	Hfo_wOH           1.465e-03       0.147   1.465e-03      -2.834
	Hfo_wHCO3         2.554e-04       0.026   2.554e-04      -3.593
	Hfo_wOH2+         2.987e-05       0.003   2.987e-05      -4.525
	Hfo_wOCa+         1.861e-05       0.002   1.861e-05      -4.730
	Hfo_wOFeOH        2.482e-09       0.000   2.482e-09      -8.605
	Hfo_wOFe+         9.646e-10       0.000   9.646e-10      -9.016

-----------------------------------------
Beginning of batch-reaction calculations.
-----------------------------------------

Reaction step 1.

Using solution 1.	Solution after simulation 1.
Using exchange 1.	Exchange assemblage after simulation 2.
Using surface 1.	

------------------------------Surface composition------------------------------

Diffuse Double Layer Surface-Complexation Model

Hfo           
	  7.306e-04  Surface charge, eq
	  1.335e-02  sigma, C/m²
	  4.005e-02  psi, V
	 -1.586e+00  -F*psi/RT
	  2.048e-01  exp(-F*psi/RT)
	  6.000e+02  specific area, m²/g
	  5.280e+03  m² for   8.800e+00 g


Hfo_w         
	  1.000e-02  moles
	                                   Mole                     Log
	Species               Moles    Fraction    Molality    Molality

	Hfo_wOMg+         4.456e-03       0.446   4.456e-03      -2.351
	Hfo_wCO3-         2.128e-03       0.213   2.128e-03      -2.672
	Hfo_wO-           1.646e-03       0.165   1.646e-03      -2.783
	Hfo_wOH           1.465e-03       0.147   1.465e-03      -2.834
	Hfo_wHCO3         2.554e-04       0.026   2.554e-04      -3.593
	Hfo_wOH2+         2.987e-05       0.003   2.987e-05      -4.525
	Hfo_wOCa+         1.861e-05       0.002   1.861e-05      -4.730
	Hfo_wOFeOH        2.482e-09       0.000   2.482e-09      -8.605
	Hfo_wOFe+         9.646e-10       0.000   9.646e-10      -9.016

-----------------------------Exchange composition------------------------------

X                1.250e-01 mol

	                               Equiv-    Equivalent      Log 
	Species             Moles      alents      Fraction     Gamma

	MgX2              5.585e-02   1.117e-01   8.936e-01    -0.209
	CaX2              6.649e-03   1.330e-02   1.064e-01    -0.213
	FeX2              2.110e-10   4.220e-10   3.376e-09    -0.208

-----------------------------Solution composition------------------------------

	Elements           Molality       Moles

	C                 2.372e-03   2.372e-03
	Ca                3.715e-04   3.715e-04
	Cl                1.000e-02   1.000e-02
	Fe                6.065e-11   6.065e-11
	Mg                5.000e-03   5.000e-03

----------------------------Description of solution----------------------------

                                       pH  =   8.292      Charge balance
                                       pe  =   1.251      Adjusted to redox equilibrium
      Specific Conductance (µS/cm,  20°C)  = 1126
                          Density (g/cm³)  =   0.99871
                               Volume (L)  =   1.00192
                        Viscosity (mPa s)  =   1.00603
                        Activity of water  =   1.000
                 Ionic strength (mol/kgw)  =   1.668e-02
                       Mass of water (kg)  =   1.000e+00
                 Total alkalinity (eq/kg)  =   2.425e-03
                       Total CO2 (mol/kg)  =   2.372e-03
                         Temperature (°C)  =  20.00
                  Electrical balance (eq)  =  -1.682e-03
 Percent error, 100*(Cat-|An|)/(Cat+|An|)  =  -7.37
                               Iterations  =   0
                                  Total H  = 1.110147e+02
                                  Total O  = 5.551331e+01

----------------------------Distribution of species----------------------------

                                               Log       Log       Log    mole V
   Species          Molality    Activity  Molality  Activity     Gamma   cm³/mol

   OH-             1.528e-06   1.341e-06    -5.816    -5.873    -0.057     -4.22
   H+              5.692e-09   5.105e-09    -8.245    -8.292    -0.047      0.00
   H2O             5.551e+01   9.997e-01     1.744    -0.000     0.000     18.05
C(-4)         0.000e+00
   CH4             0.000e+00   0.000e+00   -55.892   -55.890     0.002     35.01
C(4)          2.372e-03
   HCO3-           2.197e-03   1.945e-03    -2.658    -2.711    -0.053     24.35
   MgHCO3+         7.659e-05   6.734e-05    -4.116    -4.172    -0.056      5.40
   MgCO3           4.262e-05   4.279e-05    -4.370    -4.369     0.002    -17.08
   CO3-2           2.618e-05   1.604e-05    -4.582    -4.795    -0.213     -4.72
   CO2             2.386e-05   2.392e-05    -4.622    -4.621     0.001     34.56
   CaCO3           5.495e-06   5.516e-06    -5.260    -5.258     0.002    -14.62
   CaHCO3+         1.433e-11   1.271e-11   -10.844   -10.896    -0.052      9.53
   (CO2)2          7.123e-12   7.141e-12   -11.147   -11.146     0.001     68.28
   FeCO3           6.007e-12   6.031e-12   -11.221   -11.220     0.002     (0)  
   FeHCO3+         3.461e-12   3.047e-12   -11.461   -11.516    -0.055     (0)  
Ca            3.715e-04
   Ca+2            3.660e-04   2.242e-04    -3.437    -3.649    -0.213    -17.92
   CaCO3           5.495e-06   5.516e-06    -5.260    -5.258     0.002    -14.62
   CaOH+           8.275e-09   7.285e-09    -8.082    -8.138    -0.055     (0)  
   CaHCO3+         1.433e-11   1.271e-11   -10.844   -10.896    -0.052      9.53
Cl            1.000e-02
   Cl-             1.000e-02   8.783e-03    -2.000    -2.056    -0.056     17.99
   HCl             1.568e-11   1.593e-11   -10.805   -10.798     0.007     19.99
   FeCl+           2.158e-13   1.900e-13   -12.666   -12.721    -0.055     (0)  
   FeCl+2          7.492e-24   4.560e-24   -23.125   -23.341    -0.216     (0)  
   FeCl2+          2.380e-25   2.102e-25   -24.623   -24.677    -0.054     (0)  
   FeCl3           1.839e-28   1.846e-28   -27.735   -27.734     0.002     (0)  
Fe(2)         3.576e-11
   Fe+2            2.532e-11   1.567e-11   -10.597   -10.805    -0.208    -22.19
   FeCO3           6.007e-12   6.031e-12   -11.221   -11.220     0.002     (0)  
   FeHCO3+         3.461e-12   3.047e-12   -11.461   -11.516    -0.055     (0)  
   FeOH+           7.514e-13   6.636e-13   -12.124   -12.178    -0.054     (0)  
   FeCl+           2.158e-13   1.900e-13   -12.666   -12.721    -0.055     (0)  
   Fe(OH)2         7.080e-16   7.107e-16   -15.150   -15.148     0.002     (0)  
   Fe(OH)3-        5.569e-18   4.919e-18   -17.254   -17.308    -0.054     (0)  
Fe(3)         2.489e-11
   Fe(OH)3         2.038e-11   2.046e-11   -10.691   -10.689     0.002     (0)  
   Fe(OH)4-        3.366e-12   2.978e-12   -11.473   -11.526    -0.053     (0)  
   Fe(OH)2+        1.144e-12   1.012e-12   -11.942   -11.995    -0.053     (0)  
   FeOH+2          3.110e-17   1.893e-17   -16.507   -16.723    -0.216     (0)  
   Fe+3            5.383e-23   2.020e-23   -22.269   -22.695    -0.426     (0)  
   FeCl+2          7.492e-24   4.560e-24   -23.125   -23.341    -0.216     (0)  
   FeCl2+          2.380e-25   2.102e-25   -24.623   -24.677    -0.054     (0)  
   FeCl3           1.839e-28   1.846e-28   -27.735   -27.734     0.002     (0)  
   Fe2(OH)2+4      9.134e-32   1.190e-32   -31.039   -31.924    -0.885     (0)  
   Fe3(OH)4+5      0.000e+00   0.000e+00   -40.012   -41.395    -1.383     (0)  
H(0)          1.216e-22
   H2              6.079e-23   6.103e-23   -22.216   -22.214     0.002     14.60
Mg            5.000e-03
   Mg+2            4.879e-03   3.018e-03    -2.312    -2.520    -0.209    -21.36
   MgHCO3+         7.659e-05   6.734e-05    -4.116    -4.172    -0.056      5.40
   MgCO3           4.262e-05   4.279e-05    -4.370    -4.369     0.002    -17.08
   MgOH+           1.525e-06   1.356e-06    -5.817    -5.868    -0.051     (0)  
O(0)          0.000e+00
   O2              0.000e+00   0.000e+00   -49.625   -49.623     0.002     29.98

------------------------------Saturation indices-------------------------------

  Phase               SI** log IAP   log K(293 K,   1 atm)

  Aragonite        -0.14     -8.44   -8.31  CaCO3
  Calcite          -0.03     -8.44   -8.41  CaCO3
  CH4(g)          -53.14    -55.89   -2.75  CH4
  CO2(g)           -3.21     -4.62   -1.41  CO2
  Dolomite          1.24    -15.76  -17.00  CaMg(CO3)2
  Fe(OH)3(a)       -2.71      2.18    4.89  Fe(OH)3
  Goethite          3.00      2.18   -0.82  FeOOH
  H2(g)           -19.13    -22.21   -3.09  H2
  H2O(g)           -1.63     -0.00    1.63  H2O
  Hematite          7.98      4.36   -3.62  Fe2O3
  O2(g)           -46.77    -49.62   -2.85  O2
  Siderite         -4.74    -15.60  -10.86  FeCO3

**For a gas, SI = log10(fugacity). Fugacity = pressure * phi / 1 atm.
  For ideal gases, phi = 1.

------------------
End of simulation.
------------------

------------------------------------
Reading input data for simulation 3.
------------------------------------

	RATES
	Calcite
	   start
	1 rem	parm(1) = A/V, 1/dm parm(2) = exponent for m/m0
	10 si_cc = si("Calcite")
	20 if (m <= 0  and si_cc < 0) then goto 200
	30 k1 = 10^(0.198 - 444.0 / (273.16 + tc) )
	40 k2 = 10^(2.84 - 2177.0 / (273.16 + tc) )
	50 if tc <= 25 then k3 = 10^(-5.86 - 317.0 / (273.16 + tc) )
	60 if tc > 25 then k3 = 10^(-1.1 - 1737.0 / (273.16 + tc) )
	70     t = 1
	80     if m0 > 0 then t = m/m0
	90     if t = 0 then t = 1
	100    moles = parm(1) * 0.1 * (t)^parm(2)
	110    moles = moles * (k1 * act("H+") + k2 * act("CO2") + k3 * act("H2O"))
	120    moles = moles * (1 - 10^(2/3*si_cc))
	130    moles = moles * time
	140if (moles > m) then moles = m
	150if (moles >= 0) then goto 200
	160    temp = tot("Ca")
	170    mc  = tot("C(4)")
	180    if mc < temp then temp = mc
	190    if -moles > temp then moles = -temp
	200save moles
	   end
	END
------------------
End of simulation.
------------------

------------------------------------
Reading input data for simulation 4.
------------------------------------

	SOLUTION 0   5 mmol/l MgCl2 + 25 mmol/l O2
	        temp    20.
	        units   mol/kgw
	        pH      6.923
	        pe     14.618
	        Mg      5.0e-3
	        Cl     10.0e-3
		Fe	1e-8
		Ca	1e-8
		C(4)	1e-8
	Save solution 0
	END
-------------------------------------------
Beginning of initial solution calculations.
-------------------------------------------

Initial solution 0.	5 mmol/l MgCl2 + 25 mmol/l O2

-----------------------------Solution composition------------------------------

	Elements           Molality       Moles

	C(4)              1.000e-08   1.000e-08
	Ca                1.000e-08   1.000e-08
	Cl                1.000e-02   1.000e-02
	Fe                1.000e-08   1.000e-08
	Mg                5.000e-03   5.000e-03

----------------------------Description of solution----------------------------

                                       pH  =   6.923    
                                       pe  =  14.618    
      Specific Conductance (µS/cm,  20°C)  = 1026
                          Density (g/cm³)  =   0.99865
                               Volume (L)  =   1.00257
                        Viscosity (mPa s)  =   1.00540
                        Activity of water  =   0.999
                 Ionic strength (mol/kgw)  =   1.500e-02
                       Mass of water (kg)  =   1.000e+00
                 Total alkalinity (eq/kg)  =   1.221e-08
                       Total CO2 (mol/kg)  =   1.000e-08
                         Temperature (°C)  =  20.00
                  Electrical balance (eq)  =   1.779e-08
 Percent error, 100*(Cat-|An|)/(Cat+|An|)  =   0.00
                               Iterations  =   5
                                  Total H  = 1.110124e+02
                                  Total O  = 5.555268e+01

----------------------------Distribution of species----------------------------

                                               Log       Log       Log    mole V
   Species          Molality    Activity  Molality  Activity     Gamma   cm³/mol

   H+              1.326e-07   1.194e-07    -6.877    -6.923    -0.046      0.00
   OH-             6.493e-08   5.730e-08    -7.188    -7.242    -0.054     -4.23
   H2O             5.551e+01   9.994e-01     1.744    -0.000     0.000     18.05
C(4)          1.000e-08
   HCO3-           7.732e-09   6.879e-09    -8.112    -8.162    -0.051     24.33
   CO2             1.976e-09   1.980e-09    -8.704    -8.703     0.001     34.56
   MgHCO3+         2.816e-10   2.490e-10    -9.550    -9.604    -0.053      5.39
   MgCO3           6.742e-12   6.765e-12   -11.171   -11.170     0.002    -17.08
   CO3-2           3.878e-12   2.426e-12   -11.411   -11.615    -0.204     -4.76
   CaCO3           2.319e-17   2.327e-17   -16.635   -16.633     0.002    -14.62
   (CO2)2          4.880e-20   4.891e-20   -19.312   -19.311     0.001     68.28
   CaHCO3+         1.407e-21   1.254e-21   -20.852   -20.902    -0.050      9.53
   FeHCO3+         1.421e-24   1.258e-24   -23.848   -23.900    -0.053     (0)  
   FeCO3           1.061e-25   1.064e-25   -24.974   -24.973     0.002     (0)  
Ca            1.000e-08
   Ca+2            1.000e-08   6.253e-09    -8.000    -8.204    -0.204    -17.94
   CaOH+           9.812e-15   8.686e-15   -14.008   -14.061    -0.053     (0)  
   CaCO3           2.319e-17   2.327e-17   -16.635   -16.633     0.002    -14.62
   CaHCO3+         1.407e-21   1.254e-21   -20.852   -20.902    -0.050      9.53
Cl            1.000e-02
   Cl-             1.000e-02   8.835e-03    -2.000    -2.054    -0.054     17.99
   HCl             3.694e-10   3.748e-10    -9.433    -9.426     0.006     19.99
   FeCl+2          2.003e-17   1.245e-17   -16.698   -16.905    -0.206     (0)  
   FeCl2+          6.502e-19   5.773e-19   -18.187   -18.239    -0.052     (0)  
   FeCl+           2.519e-20   2.230e-20   -19.599   -19.652    -0.053     (0)  
   FeCl3           5.083e-22   5.101e-22   -21.294   -21.292     0.002     (0)  
Fe(2)         2.925e-18
   Fe+2            2.896e-18   1.828e-18   -17.538   -17.738    -0.200    -22.21
   FeCl+           2.519e-20   2.230e-20   -19.599   -19.652    -0.053     (0)  
   FeOH+           3.727e-21   3.310e-21   -20.429   -20.480    -0.052     (0)  
   FeHCO3+         1.421e-24   1.258e-24   -23.848   -23.900    -0.053     (0)  
   Fe(OH)2         1.510e-25   1.515e-25   -24.821   -24.820     0.002     (0)  
   FeCO3           1.061e-25   1.064e-25   -24.974   -24.973     0.002     (0)  
   Fe(OH)3-        5.047e-29   4.481e-29   -28.297   -28.349    -0.052     (0)  
Fe(3)         1.000e-08
   Fe(OH)2+        5.644e-09   5.020e-09    -8.248    -8.299    -0.051     (0)  
   Fe(OH)3         4.322e-09   4.337e-09    -8.364    -8.363     0.002     (0)  
   Fe(OH)4-        3.034e-11   2.698e-11   -10.518   -10.569    -0.051     (0)  
   FeOH+2          3.533e-12   2.197e-12   -11.452   -11.658    -0.206     (0)  
   Fe+3            1.408e-16   5.483e-17   -15.851   -16.261    -0.410     (0)  
   FeCl+2          2.003e-17   1.245e-17   -16.698   -16.905    -0.206     (0)  
   FeCl2+          6.502e-19   5.773e-19   -18.187   -18.239    -0.052     (0)  
   Fe2(OH)2+4      1.125e-21   1.602e-22   -20.949   -21.795    -0.847     (0)  
   FeCl3           5.083e-22   5.101e-22   -21.294   -21.292     0.002     (0)  
   Fe3(OH)4+5      5.649e-27   2.687e-28   -26.248   -27.571    -1.323     (0)  
H(0)          0.000e+00
   H2              0.000e+00   0.000e+00   -46.212   -46.210     0.002     14.60
Mg            5.000e-03
   Mg+2            5.000e-03   3.155e-03    -2.301    -2.501    -0.200    -21.38
   MgOH+           6.783e-08   6.057e-08    -7.169    -7.218    -0.049     (0)  
   MgHCO3+         2.816e-10   2.490e-10    -9.550    -9.604    -0.053      5.39
   MgCO3           6.742e-12   6.765e-12   -11.171   -11.170     0.002    -17.08
O(0)          4.646e-02
   O2              2.323e-02   2.331e-02    -1.634    -1.632     0.002     29.98

------------------------------Saturation indices-------------------------------

  Phase               SI** log IAP   log K(293 K,   1 atm)

  Aragonite       -11.51    -19.82   -8.31  CaCO3
  Calcite         -11.41    -19.82   -8.41  CaCO3
  CO2(g)           -7.30     -8.70   -1.41  CO2
  Dolomite        -16.93    -33.93  -17.00  CaMg(CO3)2
  Fe(OH)3(a)       -0.38      4.51    4.89  Fe(OH)3
  Goethite          5.33      4.51   -0.82  FeOOH
  H2(g)           -43.12    -46.21   -3.09  H2
  H2O(g)           -1.63     -0.00    1.63  H2O
  Hematite         12.64      9.02   -3.62  Fe2O3
  O2(g)             1.22     -1.63   -2.85  O2
  Siderite        -18.49    -29.35  -10.86  FeCO3

**For a gas, SI = log10(fugacity). Fugacity = pressure * phi / 1 atm.
  For ideal gases, phi = 1.

------------------
End of simulation.
------------------

------------------------------------
Reading input data for simulation 5.
------------------------------------

	SELECTED_OUTPUT
		file  k.prn
		totals S(6) O(0) Ca Mg C(4) Fe
	KINETICS 1-2
	Calcite
		tol	1.e-7
		m0	2.9
		m	2.9
		parameters	8	0.67
	END
------------------
End of simulation.
------------------

------------------------------------
Reading input data for simulation 6.
------------------------------------

	PRINT
		reset true
		selected_output true
	USE surface 1
	USE equilibrium_phases 1
	USE exchange 1
	USE solution 0
	USE kinetics 1
	SAVE solution 1
	END
-----------------------------------------
Beginning of batch-reaction calculations.
-----------------------------------------

Reaction step 1.

Using solution 0.	5 mmol/l MgCl2 + 25 mmol/l O2
Using exchange 1.	Exchange assemblage after simulation 2.
Using surface 1.	
Using pure phase assemblage 1.	
Using kinetics 1.	

Kinetics 1.	

	Time step: 1 seconds

	Rate name       Delta Moles Total Moles   Reactant        Coefficient

	Calcite          -5.963e-08   2.900e+00   Calcite                   1

-------------------------------Phase assemblage--------------------------------

                                                      Moles in assemblage
Phase               SI  log IAP  log K(T, P)   Initial       Final       Delta

Goethite          3.00     2.18     -0.82    1.000e-01   1.000e-01   1.363e-08

------------------------------Surface composition------------------------------

Diffuse Double Layer Surface-Complexation Model

Hfo           
	  8.043e-04  Surface charge, eq
	  1.470e-02  sigma, C/m²
	  4.398e-02  psi, V
	 -1.741e+00  -F*psi/RT
	  1.753e-01  exp(-F*psi/RT)
	  6.000e+02  specific area, m²/g
	  5.280e+03  m² for   8.800e+00 g


Hfo_w         
	  1.000e-02  moles
	                                   Mole                     Log
	Species               Moles    Fraction    Molality    Molality

	Hfo_wOMg+         4.081e-03       0.408   4.081e-03      -2.389
	Hfo_wOH           2.283e-03       0.228   2.283e-03      -2.642
	Hfo_wO-           2.000e-03       0.200   2.000e-03      -2.699
	Hfo_wCO3-         1.352e-03       0.135   1.352e-03      -2.869
	Hfo_wHCO3         2.082e-04       0.021   2.082e-04      -3.682
	Hfo_wOH2+         5.968e-05       0.006   5.968e-05      -4.224
	Hfo_wOCa+         1.605e-05       0.002   1.605e-05      -4.795
	Hfo_wOFeOH        3.888e-21       0.000   3.888e-21     -20.410
	Hfo_wOFe+         1.938e-21       0.000   1.938e-21     -20.713

-----------------------------Exchange composition------------------------------

X                1.250e-01 mol

	                               Equiv-    Equivalent      Log 
	Species             Moles      alents      Fraction     Gamma

	MgX2              5.620e-02   1.124e-01   8.992e-01    -0.206
	CaX2              6.298e-03   1.260e-02   1.008e-01    -0.210
	FeX2              4.659e-22   9.318e-22   7.454e-21    -0.205

-----------------------------Solution composition------------------------------

	Elements           Molality       Moles

	C                 8.229e-04   8.229e-04
	Ca                3.533e-04   3.533e-04
	Cl                1.000e-02   1.000e-02
	Fe                2.433e-11   2.433e-11
	Mg                5.025e-03   5.025e-03

----------------------------Description of solution----------------------------

                                       pH  =   8.116      Charge balance
                                       pe  =  13.425      Adjusted to redox equilibrium
      Specific Conductance (µS/cm,  20°C)  = 1081
                          Density (g/cm³)  =   0.99870
                               Volume (L)  =   1.00257
                        Viscosity (mPa s)  =   1.00573
                        Activity of water  =   0.999
                 Ionic strength (mol/kgw)  =   1.609e-02
                       Mass of water (kg)  =   1.000e+00
                 Total alkalinity (eq/kg)  =   8.300e-04
                       Total CO2 (mol/kg)  =   8.229e-04
                         Temperature (°C)  =  20.00
                  Electrical balance (eq)  =  -7.365e-05
 Percent error, 100*(Cat-|An|)/(Cat+|An|)  =  -0.34
                               Iterations  =  14
                                  Total H  = 1.110116e+02
                                  Total O  = 5.555432e+01

----------------------------Distribution of species----------------------------

                                               Log       Log       Log    mole V
   Species          Molality    Activity  Molality  Activity     Gamma   cm³/mol

   OH-             1.017e-06   8.943e-07    -5.993    -6.049    -0.056     -4.23
   H+              8.517e-09   7.649e-09    -8.070    -8.116    -0.047      0.00
   H2O             5.551e+01   9.993e-01     1.744    -0.000     0.000     18.05
C(-4)         0.000e+00
   CH4             0.000e+00   0.000e+00  -152.155  -152.154     0.002     35.01
C(4)          8.229e-04
   HCO3-           7.655e-04   6.787e-04    -3.116    -3.168    -0.052     24.35
   MgHCO3+         2.745e-05   2.418e-05    -4.561    -4.616    -0.055      5.40
   CO2             1.249e-05   1.252e-05    -4.904    -4.903     0.001     34.56
   MgCO3           1.022e-05   1.026e-05    -4.991    -4.989     0.002    -17.08
   CO3-2           6.054e-06   3.737e-06    -5.218    -5.428    -0.210     -4.73
   CaCO3           1.240e-06   1.245e-06    -5.907    -5.905     0.002    -14.62
   CaHCO3+         4.837e-12   4.298e-12   -11.315   -11.367    -0.051      9.53
   (CO2)2          1.950e-12   1.954e-12   -11.710   -11.709     0.001     68.28
   FeCO3           3.160e-24   3.172e-24   -23.500   -23.499     0.002     (0)  
   FeHCO3+         2.723e-24   2.402e-24   -23.565   -23.619    -0.054     (0)  
Ca            3.533e-04
   Ca+2            3.521e-04   2.172e-04    -3.453    -3.663    -0.210    -17.93
   CaCO3           1.240e-06   1.245e-06    -5.907    -5.905     0.002    -14.62
   CaOH+           5.339e-09   4.709e-09    -8.273    -8.327    -0.054     (0)  
   CaHCO3+         4.837e-12   4.298e-12   -11.315   -11.367    -0.051      9.53
Cl            1.000e-02
   Cl-             1.000e-02   8.801e-03    -2.000    -2.055    -0.055     17.99
   HCl             2.355e-11   2.392e-11   -10.628   -10.621     0.007     19.99
   FeCl+2          2.509e-23   1.538e-23   -22.601   -22.813    -0.212     (0)  
   FeCl2+          8.029e-25   7.105e-25   -24.095   -24.148    -0.053     (0)  
   FeCl+           4.874e-25   4.299e-25   -24.312   -24.367    -0.054     (0)  
   FeCl3           6.230e-28   6.253e-28   -27.206   -27.204     0.002     (0)  
Fe(2)         6.428e-23
   Fe+2            5.678e-23   3.539e-23   -22.246   -22.451    -0.205    -22.20
   FeCO3           3.160e-24   3.172e-24   -23.500   -23.499     0.002     (0)  
   FeHCO3+         2.723e-24   2.402e-24   -23.565   -23.619    -0.054     (0)  
   FeOH+           1.130e-24   9.998e-25   -23.947   -24.000    -0.053     (0)  
   FeCl+           4.874e-25   4.299e-25   -24.312   -24.367    -0.054     (0)  
   Fe(OH)2         7.117e-28   7.143e-28   -27.148   -27.146     0.002     (0)  
   Fe(OH)3-        3.727e-30   3.298e-30   -29.429   -29.482    -0.053     (0)  
Fe(3)         2.433e-11
   Fe(OH)3         2.037e-11   2.045e-11   -10.691   -10.689     0.002     (0)  
   Fe(OH)4-        2.241e-12   1.986e-12   -11.650   -11.702    -0.052     (0)  
   Fe(OH)2+        1.711e-12   1.517e-12   -11.767   -11.819    -0.052     (0)  
   FeOH+2          6.934e-17   4.251e-17   -16.159   -16.371    -0.212     (0)  
   Fe+3            1.789e-22   6.799e-23   -21.747   -22.168    -0.420     (0)  
   FeCl+2          2.509e-23   1.538e-23   -22.601   -22.813    -0.212     (0)  
   FeCl2+          8.029e-25   7.105e-25   -24.095   -24.148    -0.053     (0)  
   FeCl3           6.230e-28   6.253e-28   -27.206   -27.204     0.002     (0)  
   Fe2(OH)2+4      4.468e-31   6.003e-32   -30.350   -31.222    -0.872     (0)  
   Fe3(OH)4+5      7.000e-40   0.000e+00   -39.155   -40.517    -1.362     (0)  
H(0)          0.000e+00
   H2              0.000e+00   0.000e+00   -46.212   -46.210     0.002     14.60
Mg            5.025e-03
   Mg+2            4.986e-03   3.106e-03    -2.302    -2.508    -0.206    -21.37
   MgHCO3+         2.745e-05   2.418e-05    -4.561    -4.616    -0.055      5.40
   MgCO3           1.022e-05   1.026e-05    -4.991    -4.989     0.002    -17.08
   MgOH+           1.045e-06   9.307e-07    -5.981    -6.031    -0.051     (0)  
O(0)          4.646e-02
   O2              2.323e-02   2.332e-02    -1.634    -1.632     0.002     29.98

------------------------------Saturation indices-------------------------------

  Phase               SI** log IAP   log K(293 K,   1 atm)

  Aragonite        -0.78     -9.09   -8.31  CaCO3
  Calcite          -0.68     -9.09   -8.41  CaCO3
  CH4(g)         -149.40   -152.15   -2.75  CH4
  CO2(g)           -3.50     -4.90   -1.41  CO2
  Dolomite         -0.02    -17.03  -17.00  CaMg(CO3)2
  Fe(OH)3(a)       -2.71      2.18    4.89  Fe(OH)3
  Goethite          3.00      2.18   -0.82  FeOOH
  H2(g)           -43.12    -46.21   -3.09  H2
  H2O(g)           -1.63     -0.00    1.63  H2O
  Hematite          7.98      4.36   -3.62  Fe2O3
  O2(g)             1.22     -1.63   -2.85  O2
  Siderite        -17.02    -27.88  -10.86  FeCO3

**For a gas, SI = log10(fugacity). Fugacity = pressure * phi / 1 atm.
  For ideal gases, phi = 1.

------------------
End of simulation.
------------------

------------------------------------
Reading input data for simulation 7.
------------------------------------

	SOLUTION_SPECIES
	H2O + 0.01e- = H2O-0.01
	log_k -9
	USE surface 2
	USE equilibrium_phases 2
	MIX 2
		1  0.1
		2  0.9
	END
-----------------------------------------
Beginning of batch-reaction calculations.
-----------------------------------------

Reaction step 1.

Using mix 2.	
Using surface 2.	
Using pure phase assemblage 2.	

Mixture 2.	

	  1.000e-01 Solution 1	Solution after simulation 6.                           
	  9.000e-01 Solution 2	Solution after simulation 1.                           

-------------------------------Phase assemblage--------------------------------

                                                      Moles in assemblage
Phase               SI  log IAP  log K(T, P)   Initial       Final       Delta

Goethite          3.00     2.18     -0.82    1.000e-01   1.000e-01   3.479e-09

------------------------------Surface composition------------------------------

Diffuse Double Layer Surface-Complexation Model

Hfo           
	  7.355e-04  Surface charge, eq
	  1.344e-02  sigma, C/m²
	  4.029e-02  psi, V
	 -1.595e+00  -F*psi/RT
	  2.029e-01  exp(-F*psi/RT)
	  6.000e+02  specific area, m²/g
	  5.280e+03  m² for   8.800e+00 g


Hfo_w         
	  1.000e-02  moles
	                                   Mole                     Log
	Species               Moles    Fraction    Molality    Molality

	Hfo_wOMg+         4.441e-03       0.444   4.441e-03      -2.353
	Hfo_wCO3-         2.092e-03       0.209   2.092e-03      -2.680
	Hfo_wO-           1.663e-03       0.166   1.663e-03      -2.779
	Hfo_wOH           1.501e-03       0.150   1.501e-03      -2.824
	Hfo_wHCO3         2.547e-04       0.025   2.547e-04      -3.594
	Hfo_wOH2+         3.103e-05       0.003   3.103e-05      -4.508
	Hfo_wOCa+         1.839e-05       0.002   1.839e-05      -4.735
	Hfo_wOFeOH        4.545e-21       0.000   4.545e-21     -20.342
	Hfo_wOFe+         1.791e-21       0.000   1.791e-21     -20.747

-----------------------------Solution composition------------------------------

	Elements           Molality       Moles

	C                 2.254e-03   2.254e-03
	Ca                3.699e-04   3.699e-04
	Cl                1.000e-02   1.000e-02
	Fe                2.484e-11   2.484e-11
	Mg                5.018e-03   5.018e-03

----------------------------Description of solution----------------------------

                                       pH  =   8.282      Charge balance
                                       pe  =  13.009      Adjusted to redox equilibrium
      Specific Conductance (µS/cm,  20°C)  = 1124
                          Density (g/cm³)  =   0.99872
                               Volume (L)  =   1.00199
                        Viscosity (mPa s)  =   1.00602
                        Activity of water  =   1.000
                 Ionic strength (mol/kgw)  =   1.667e-02
                       Mass of water (kg)  =   1.000e+00
                 Total alkalinity (eq/kg)  =   2.303e-03
                       Total CO2 (mol/kg)  =   2.254e-03
                         Temperature (°C)  =  20.00
                           Pressure (atm)  =  1.00
                  Electrical balance (eq)  =  -1.527e-03
 Percent error, 100*(Cat-|An|)/(Cat+|An|)  =  -6.71
                               Iterations  =  14
                                  Total H  = 1.110144e+02
                                  Total O  = 5.551749e+01

----------------------------Distribution of species----------------------------

                                               Log       Log       Log    mole V
   Species          Molality    Activity  Molality  Activity     Gamma   cm³/mol

   OH-             1.493e-06   1.309e-06    -5.826    -5.883    -0.057     -4.22
   H+              5.828e-09   5.226e-09    -8.235    -8.282    -0.047      0.00
   H2O-0.01        7.409e-10   7.409e-10    -9.130    -9.130    -0.000     (0)  
   H2O             5.551e+01   9.997e-01     1.744    -0.000     0.000     18.05
C(-4)         0.000e+00
   CH4             0.000e+00   0.000e+00  -149.885  -149.884     0.002     35.01
C(4)          2.254e-03
   HCO3-           2.089e-03   1.849e-03    -2.680    -2.733    -0.053     24.35
   MgHCO3+         7.318e-05   6.435e-05    -4.136    -4.191    -0.056      5.40
   MgCO3           3.978e-05   3.994e-05    -4.400    -4.399     0.002    -17.08
   CO3-2           2.430e-05   1.490e-05    -4.614    -4.827    -0.213     -4.72
   CO2             2.322e-05   2.328e-05    -4.634    -4.633     0.001     34.56
   CaCO3           5.086e-06   5.106e-06    -5.294    -5.292     0.002    -14.62
   CaHCO3+         1.358e-11   1.204e-11   -10.867   -10.919    -0.052      9.53
   (CO2)2          6.746e-12   6.763e-12   -11.171   -11.170     0.001     68.28
   FeCO3           1.045e-23   1.049e-23   -22.981   -22.979     0.002     (0)  
   FeHCO3+         6.164e-24   5.427e-24   -23.210   -23.265    -0.055     (0)  
Ca            3.699e-04
   Ca+2            3.648e-04   2.235e-04    -3.438    -3.651    -0.213    -17.92
   CaCO3           5.086e-06   5.106e-06    -5.294    -5.292     0.002    -14.62
   CaOH+           8.057e-09   7.094e-09    -8.094    -8.149    -0.055     (0)  
   CaHCO3+         1.358e-11   1.204e-11   -10.867   -10.919    -0.052      9.53
Cl            1.000e-02
   Cl-             1.000e-02   8.784e-03    -2.000    -2.056    -0.056     17.99
   HCl             1.605e-11   1.631e-11   -10.795   -10.787     0.007     19.99
   FeCl+2          8.038e-24   4.893e-24   -23.095   -23.310    -0.216     (0)  
   FeCl+           4.043e-25   3.560e-25   -24.393   -24.449    -0.055     (0)  
   FeCl2+          2.554e-25   2.256e-25   -24.593   -24.647    -0.054     (0)  
   FeCl3           1.974e-28   1.981e-28   -27.705   -27.703     0.002     (0)  
Fe(2)         6.583e-23
   Fe+2            4.743e-23   2.936e-23   -22.324   -22.532    -0.208    -22.19
   FeCO3           1.045e-23   1.049e-23   -22.981   -22.979     0.002     (0)  
   FeHCO3+         6.164e-24   5.427e-24   -23.210   -23.265    -0.055     (0)  
   FeOH+           1.375e-24   1.214e-24   -23.862   -23.916    -0.054     (0)  
   FeCl+           4.043e-25   3.560e-25   -24.393   -24.449    -0.055     (0)  
   Fe(OH)2         1.266e-27   1.270e-27   -26.898   -26.896     0.002     (0)  
   Fe(OH)3-        9.723e-30   8.589e-30   -29.012   -29.066    -0.054     (0)  
Fe(3)         2.484e-11
   Fe(OH)3         2.038e-11   2.046e-11   -10.691   -10.689     0.002     (0)  
   Fe(OH)4-        3.288e-12   2.909e-12   -11.483   -11.536    -0.053     (0)  
   Fe(OH)2+        1.171e-12   1.036e-12   -11.931   -11.985    -0.053     (0)  
   FeOH+2          3.259e-17   1.984e-17   -16.487   -16.702    -0.216     (0)  
   Fe+3            5.775e-23   2.167e-23   -22.238   -22.664    -0.426     (0)  
   FeCl+2          8.038e-24   4.893e-24   -23.095   -23.310    -0.216     (0)  
   FeCl2+          2.554e-25   2.256e-25   -24.593   -24.647    -0.054     (0)  
   FeCl3           1.974e-28   1.981e-28   -27.705   -27.703     0.002     (0)  
   Fe2(OH)2+4      1.003e-31   1.307e-32   -30.999   -31.884    -0.885     (0)  
   Fe3(OH)4+5      1.092e-40   0.000e+00   -39.962   -41.344    -1.383     (0)  
H(0)          0.000e+00
   H2              0.000e+00   0.000e+00   -45.712   -45.710     0.002     14.60
Mg            5.018e-03
   Mg+2            4.904e-03   3.034e-03    -2.309    -2.518    -0.209    -21.36
   MgHCO3+         7.318e-05   6.435e-05    -4.136    -4.191    -0.056      5.40
   MgCO3           3.978e-05   3.994e-05    -4.400    -4.399     0.002    -17.08
   MgOH+           1.498e-06   1.331e-06    -5.825    -5.876    -0.051     (0)  
O(0)          4.646e-03
   O2              2.323e-03   2.332e-03    -2.634    -2.632     0.002     29.98

------------------------------Saturation indices-------------------------------

  Phase               SI** log IAP   log K(293 K,   1 atm)

  Aragonite        -0.17     -8.48   -8.31  CaCO3
  Calcite          -0.07     -8.48   -8.41  CaCO3
  CH4(g)         -147.13   -149.88   -2.75  CH4
  CO2(g)           -3.23     -4.63   -1.41  CO2
  Dolomite          1.18    -15.82  -17.00  CaMg(CO3)2
  Fe(OH)3(a)       -2.71      2.18    4.89  Fe(OH)3
  Goethite          3.00      2.18   -0.82  FeOOH
  H2(g)           -42.62    -45.71   -3.09  H2
  H2O(g)           -1.63     -0.00    1.63  H2O
  Hematite          7.98      4.36   -3.62  Fe2O3
  O2(g)             0.22     -2.63   -2.85  O2
  Siderite        -16.50    -27.36  -10.86  FeCO3

**For a gas, SI = log10(fugacity). Fugacity = pressure * phi / 1 atm.
  For ideal gases, phi = 1.

------------------
End of simulation.
------------------

------------------------------------
Reading input data for simulation 8.
------------------------------------

