WARNING: Database file from DATABASE keyword is used; command line argument ignored.
   Input file: ternary
  Output file: ternary.out
Database file: ../database/Amm.dat

------------------
Reading data base.
------------------

	SOLUTION_MASTER_SPECIES
	SOLUTION_SPECIES
	PHASES
	GAS_BINARY_PARAMETERS
	EXCHANGE_MASTER_SPECIES
	EXCHANGE_SPECIES
	SURFACE_MASTER_SPECIES
	SURFACE_SPECIES
	MEAN_GAMMAS
	RATES
	END
------------------------------------
Reading input data for simulation 1.
------------------------------------

	database ../database/Amm.dat
	SELECTED_OUTPUT 101
	    file                 ternary_101.sel
	USER_PUNCH 101
	    headings Mu SC
	    start
	10 PUNCH STR_F$(MU, 20, 12)
	20 PUNCH STR_F$(SC, 20, 10)
	    end
	SOLUTION 1
	pH 7 charge
	water 0.05
	 temp 102
	  pressure 105.6
	 C(4) 1 CO2(g) 2
	GAS_PHASE 1
	 fixed_pressure
	 temp 102
	 pressure 105.6
	 Mtg(g) 0
	 CO2(g) 105
	 H2O(g) 0
	REACTION
	 CO2 -1 Mtg 1
	 3 in 10
	USER_GRAPH 1 ...  K_H for CO2 in CO2/CH4 mixture
	 -plot_csv_file Qin_CO2.dat
	 -axis_scale x_axis 0.5 0.9
	 -connect_simulations false
	 -axis_titles "CO2 as a fraction of all CO2 + CH4 in the system" "P_CO2(g) / mol_fraction CO2 in solution / (MPa)"
	  5 tw =  tot("water")
	 10 m_h2o = tw / (18.06e-3)
	 20 t_mol = m_h2o + tot("Mtg") * tw + tot("C(4)") * tw
	 30 x_CO2 = tot("C(4)") * tw / t_mol
	 32 x_Mtg = tot("Mtg") * tw / t_mol
	 40 graph_x sys("C(4)") / (sys("C") + sys("Mtg"))
	 50 graph_y pr_p("CO2(g)") / x_CO2 * 0.101325
	 -end
	USER_GRAPH 2 ... K_H for CH4 in CO2/CH4 mixture
	 -plot_csv_file Qin_CH4.dat
	 -axis_scale x_axis 0.5 0.9
	 -connect_simulations false
	 -axis_titles "CO2 as a fraction of all CO2 + CH4 in the system" "P_CH4(g) / mol_fraction CH4 in solution / (MPa)"
	  5 tw =  tot("water")
	 10 m_h2o = tw / (18.06e-3)
	 20 t_mol = m_h2o + tot("Mtg") * tw + tot("C(4)") * tw
	 30 x_CO2 = tot("C(4)") * tw / t_mol
	 32 x_Mtg = tot("Mtg") * tw / t_mol
	 34 mol_gas = gas("H2O(g)") + gas("CO2(g)") + gas("Mtg(g)")
	 40 graph_x sys("C(4)") / (sys("C") + sys("Mtg"))
	 50 graph_y pr_p("Mtg(g)") / x_Mtg * 0.101325
	END
-------------------------------------------
Beginning of initial solution calculations.
-------------------------------------------

Initial solution 1.	

-----------------------------Solution composition------------------------------

	Elements           Molality       Moles

	C(4)              7.841e-01   3.920e-02  Equilibrium with CO2(g)

----------------------------Description of solution----------------------------

                                       pH  =   3.275      Charge balance
                                       pe  =   4.000    
      Specific Conductance (µS/cm, 102°C)  = 374
                          Density (g/cm³)  =   0.96674
                               Volume (L)  =   0.05351
                        Viscosity (mPa s)  =   0.28212
                        Activity of water  =   0.987
                 Ionic strength (mol/kgw)  =   5.468e-04
                       Mass of water (kg)  =   5.000e-02
                 Total alkalinity (eq/kg)  =   1.572e-13
                       Total CO2 (mol/kg)  =   7.841e-01
                         Temperature (°C)  = 102.00
                           Pressure (atm)  = 105.60
                  Electrical balance (eq)  =  -7.862e-15
 Percent error, 100*(Cat-|An|)/(Cat+|An|)  =  -0.00
                               Iterations  =   6
                                  Total H  = 5.550676e+00
                                  Total O  = 2.853745e+00

----------------------------Distribution of species----------------------------

                                               Log       Log       Log    mole V
   Species          Molality    Activity  Molality  Activity     Gamma   cm³/mol

   H+              5.468e-04   5.306e-04    -3.262    -3.275    -0.013      0.00
   OH-             1.299e-09   1.259e-09    -8.886    -8.900    -0.014     -6.52
   H2O             5.551e+01   9.874e-01     1.744    -0.006     0.000     18.73
C(4)          7.841e-01
   CO2             6.968e-01   6.969e-01    -0.157    -0.157     0.000     38.95
   (CO2)2          4.335e-02   4.335e-02    -1.363    -1.363     0.000     77.06
   HCO3-           5.468e-04   5.301e-04    -3.262    -3.276    -0.013     24.62
   CO3-2           8.702e-11   7.690e-11   -10.060   -10.114    -0.054     -7.07
H(0)          2.037e-18
   H2              1.018e-18   1.019e-18   -17.992   -17.992     0.000     18.23
O(0)          1.628e-37
   O2              8.140e-38   8.141e-38   -37.089   -37.089     0.000     33.63

------------------------------Saturation indices-------------------------------

  Phase               SI** log IAP   log K(375 K, 106 atm)

  CO2(g)            1.89     -0.16   -2.04  CO2	 Pressure 100.0 atm, phi 0.770
  H2(g)           -14.88    -17.99   -3.11  H2
  H2O(g)            0.05     -0.01   -0.05  H2O
  O2(g)           -33.93    -37.09   -3.16  O2

**For a gas, SI = log10(fugacity). Fugacity = pressure * phi / 1 atm.
  For ideal gases, phi = 1.

-----------------------------------------
Beginning of batch-reaction calculations.
-----------------------------------------

Reaction step 1.

Using solution 1.	
Using gas phase 1.	
Using reaction 1.	

Reaction 1.	

	  3.000e-01 moles of the following reaction have been added:

	                 Relative
	Reactant            moles

	CO2                 -1.00000
	Mtg                  1.00000

	                 Relative
	Element             moles
	C                   -1.00000
	Mtg                  1.00000
	O                   -2.00000

-----------------------------------Gas phase-----------------------------------

Total pressure: 105.60      atmospheres          (Peng-Robinson calculation)
    Gas volume:   1.03e+00 liters
  Molar volume:   2.17e-01 liters/mole
   P * Vm / RT:  0.74394  (Compressibility Factor Z) 

                                                        Moles in gas
                                            ----------------------------------
Component         log P           P    phi     Initial       Final       Delta

CO2(g)             1.99   9.689e+01  0.759   4.643e+00   4.347e+00  -2.968e-01
H2O(g)             0.31   2.026e+00  0.551   0.000e+00   9.089e-02   9.089e-02
Mtg(g)             0.82   6.681e+00  0.973   0.000e+00   2.997e-01   2.997e-01

-----------------------------Solution composition------------------------------

	Elements           Molality       Moles

	C                 7.452e-01   3.604e-02
	Mtg               5.627e-03   2.721e-04

----------------------------Description of solution----------------------------

                                       pH  =   3.285      Charge balance
                                       pe  =   2.048      Adjusted to redox equilibrium
      Specific Conductance (µS/cm, 102°C)  = 366
                          Density (g/cm³)  =   0.96638
                               Volume (L)  =   0.05169
                        Viscosity (mPa s)  =   0.28196
                        Activity of water  =   0.988
                 Ionic strength (mol/kgw)  =   5.343e-04
                       Mass of water (kg)  =   4.836e-02
                 Total alkalinity (eq/kg)  =   1.625e-13
                       Total CO2 (mol/kg)  =   7.452e-01
                         Temperature (°C)  = 102.00
                           Pressure (atm)  = 105.60
                  Electrical balance (eq)  =  -7.861e-15
 Percent error, 100*(Cat-|An|)/(Cat+|An|)  =  -0.00
                               Iterations  =  10
                                  Total H  = 5.368906e+00
                                  Total O  = 2.756533e+00

----------------------------Distribution of species----------------------------

                                               Log       Log       Log    mole V
   Species          Molality    Activity  Molality  Activity     Gamma   cm³/mol

   H+              5.343e-04   5.187e-04    -3.272    -3.285    -0.013      0.00
   OH-             1.329e-09   1.289e-09    -8.876    -8.890    -0.013     -6.52
   H2O             5.551e+01   9.879e-01     1.744    -0.005     0.000     18.73
C(-4)         2.516e-28
   CH4             2.516e-28   2.517e-28   -27.599   -27.599     0.000     41.10
C(4)          7.452e-01
   CO2             6.656e-01   6.656e-01    -0.177    -0.177     0.000     38.95
   (CO2)2          3.955e-02   3.955e-02    -1.403    -1.403     0.000     77.06
   HCO3-           5.343e-04   5.183e-04    -3.272    -3.285    -0.013     24.62
   CO3-2           8.690e-11   7.690e-11   -10.061   -10.114    -0.053     -7.07
H(0)          1.560e-14
   H2              7.802e-15   7.803e-15   -14.108   -14.108     0.000     18.23
Mtg           5.627e-03
   Mtg             5.627e-03   5.628e-03    -2.250    -2.250     0.000     41.10
O(0)          0.000e+00
   O2              0.000e+00   0.000e+00   -44.858   -44.858     0.000     33.63

------------------------------Saturation indices-------------------------------

  Phase               SI** log IAP   log K(375 K, 106 atm)

  CH4(g)          -24.54    -27.60   -3.06  CH4
  CO2(g)            1.87     -0.18   -2.04  CO2	 Pressure  96.9 atm, phi 0.759
  H2(g)           -11.00    -14.11   -3.11  H2
  H2O(g)            0.05     -0.01   -0.05  H2O	 Pressure   2.0 atm, phi 0.551
  Mtg(g)            0.81     -2.25   -3.06  Mtg	 Pressure   6.7 atm, phi 0.973
  O2(g)           -41.69    -44.86   -3.16  O2

**For a gas, SI = log10(fugacity). Fugacity = pressure * phi / 1 atm.
  For ideal gases, phi = 1.

Reaction step 2.

Using solution 1.	
Using gas phase 1.	
Using reaction 1.	

Reaction 1.	

	  6.000e-01 moles of the following reaction have been added:

	                 Relative
	Reactant            moles

	CO2                 -1.00000
	Mtg                  1.00000

	                 Relative
	Element             moles
	C                   -1.00000
	Mtg                  1.00000
	O                   -2.00000

-----------------------------------Gas phase-----------------------------------

Total pressure: 105.60      atmospheres          (Peng-Robinson calculation)
    Gas volume:   1.05e+00 liters
  Molar volume:   2.22e-01 liters/mole
   P * Vm / RT:  0.76198  (Compressibility Factor Z) 

                                                        Moles in gas
                                            ----------------------------------
Component         log P           P    phi     Initial       Final       Delta

CO2(g)             1.96   9.027e+01  0.759   4.643e+00   4.049e+00  -5.942e-01
H2O(g)             0.29   1.962e+00  0.570   0.000e+00   8.802e-02   8.802e-02
Mtg(g)             1.13   1.336e+01  0.964   0.000e+00   5.995e-01   5.995e-01

-----------------------------Solution composition------------------------------

	Elements           Molality       Moles

	C                 6.895e-01   3.338e-02
	Mtg               1.115e-02   5.398e-04

----------------------------Description of solution----------------------------

                                       pH  =   3.300      Charge balance
                                       pe  =   2.984      Adjusted to redox equilibrium
      Specific Conductance (µS/cm, 102°C)  = 355
                          Density (g/cm³)  =   0.96592
                               Volume (L)  =   0.05165
                        Viscosity (mPa s)  =   0.28172
                        Activity of water  =   0.989
                 Ionic strength (mol/kgw)  =   5.158e-04
                       Mass of water (kg)  =   4.841e-02
                 Total alkalinity (eq/kg)  =   1.624e-13
                       Total CO2 (mol/kg)  =   6.895e-01
                         Temperature (°C)  = 102.00
                           Pressure (atm)  = 105.60
                  Electrical balance (eq)  =  -7.864e-15
 Percent error, 100*(Cat-|An|)/(Cat+|An|)  =  -0.00
                               Iterations  =  16
                                  Total H  = 5.374631e+00
                                  Total O  = 2.754080e+00

----------------------------Distribution of species----------------------------

                                               Log       Log       Log    mole V
   Species          Molality    Activity  Molality  Activity     Gamma   cm³/mol

   H+              5.158e-04   5.009e-04    -3.288    -3.300    -0.013      0.00
   OH-             1.377e-09   1.335e-09    -8.861    -8.874    -0.013     -6.53
   H2O             5.551e+01   9.887e-01     1.744    -0.005     0.000     18.73
C(-4)         5.789e-36
   CH4             5.789e-36   5.789e-36   -35.237   -35.237     0.000     41.10
C(4)          6.895e-01
   CO2             6.203e-01   6.203e-01    -0.207    -0.207     0.000     38.95
   (CO2)2          3.435e-02   3.435e-02    -1.464    -1.464     0.000     77.06
   HCO3-           5.158e-04   5.005e-04    -3.288    -3.301    -0.013     24.62
   CO3-2           8.673e-11   7.691e-11   -10.062   -10.114    -0.052     -7.08
H(0)          1.957e-16
   H2              9.784e-17   9.785e-17   -16.010   -16.009     0.000     18.23
Mtg           1.115e-02
   Mtg             1.115e-02   1.115e-02    -1.953    -1.953     0.000     41.10
O(0)          0.000e+00
   O2              0.000e+00   0.000e+00   -41.053   -41.053     0.000     33.63

------------------------------Saturation indices-------------------------------

  Phase               SI** log IAP   log K(375 K, 106 atm)

  CH4(g)          -32.17    -35.24   -3.06  CH4
  CO2(g)            1.84     -0.21   -2.04  CO2	 Pressure  90.3 atm, phi 0.759
  H2(g)           -12.90    -16.01   -3.11  H2
  H2O(g)            0.05     -0.00   -0.05  H2O	 Pressure   2.0 atm, phi 0.570
  Mtg(g)            1.11     -1.95   -3.06  Mtg	 Pressure  13.4 atm, phi 0.964
  O2(g)           -37.89    -41.05   -3.16  O2

**For a gas, SI = log10(fugacity). Fugacity = pressure * phi / 1 atm.
  For ideal gases, phi = 1.

Reaction step 3.

Using solution 1.	
Using gas phase 1.	
Using reaction 1.	

Reaction 1.	

	  9.000e-01 moles of the following reaction have been added:

	                 Relative
	Reactant            moles

	CO2                 -1.00000
	Mtg                  1.00000

	                 Relative
	Element             moles
	C                   -1.00000
	Mtg                  1.00000
	O                   -2.00000

-----------------------------------Gas phase-----------------------------------

Total pressure: 105.60      atmospheres          (Peng-Robinson calculation)
    Gas volume:   1.08e+00 liters
  Molar volume:   2.27e-01 liters/mole
   P * Vm / RT:  0.77889  (Compressibility Factor Z) 

                                                        Moles in gas
                                            ----------------------------------
Component         log P           P    phi     Initial       Final       Delta

CO2(g)             1.92   8.365e+01  0.760   4.643e+00   3.752e+00  -8.916e-01
H2O(g)             0.28   1.903e+00  0.588   0.000e+00   8.536e-02   8.536e-02
Mtg(g)             1.30   2.005e+01  0.956   0.000e+00   8.992e-01   8.992e-01

-----------------------------Solution composition------------------------------

	Elements           Molality       Moles

	C                 6.349e-01   3.077e-02
	Mtg               1.659e-02   8.040e-04

----------------------------Description of solution----------------------------

                                       pH  =   3.316      Charge balance
                                       pe  =   9.701      Adjusted to redox equilibrium
      Specific Conductance (µS/cm, 102°C)  = 343
                          Density (g/cm³)  =   0.96547
                               Volume (L)  =   0.05161
                        Viscosity (mPa s)  =   0.28148
                        Activity of water  =   0.989
                 Ionic strength (mol/kgw)  =   4.966e-04
                       Mass of water (kg)  =   4.846e-02
                 Total alkalinity (eq/kg)  =   1.622e-13
                       Total CO2 (mol/kg)  =   6.349e-01
                         Temperature (°C)  = 102.00
                           Pressure (atm)  = 105.60
                  Electrical balance (eq)  =  -7.861e-15
 Percent error, 100*(Cat-|An|)/(Cat+|An|)  =  -0.00
                               Iterations  =  15
                                  Total H  = 5.379960e+00
                                  Total O  = 2.751514e+00

----------------------------Distribution of species----------------------------

                                               Log       Log       Log    mole V
   Species          Molality    Activity  Molality  Activity     Gamma   cm³/mol

   H+              4.966e-04   4.826e-04    -3.304    -3.316    -0.012      0.00
   OH-             1.429e-09   1.387e-09    -8.845    -8.858    -0.013     -6.53
   H2O             5.551e+01   9.894e-01     1.744    -0.005     0.000     18.73
C(-4)         0.000e+00
   CH4             0.000e+00   0.000e+00   -89.141   -89.141     0.000     41.10
C(4)          6.349e-01
   CO2             5.753e-01   5.753e-01    -0.240    -0.240     0.000     38.95
   (CO2)2          2.954e-02   2.955e-02    -1.530    -1.529     0.000     77.06
   HCO3-           4.966e-04   4.822e-04    -3.304    -3.317    -0.013     24.62
   CO3-2           8.654e-11   7.691e-11   -10.063   -10.114    -0.051     -7.08
H(0)          6.669e-30
   H2              3.334e-30   3.335e-30   -29.477   -29.477     0.000     18.23
Mtg           1.659e-02
   Mtg             1.659e-02   1.659e-02    -1.780    -1.780     0.000     41.10
O(0)          1.525e-14
   O2              7.624e-15   7.625e-15   -14.118   -14.118     0.000     33.63

------------------------------Saturation indices-------------------------------

  Phase               SI** log IAP   log K(375 K, 106 atm)

  CH4(g)          -86.08    -89.14   -3.06  CH4
  CO2(g)            1.80     -0.24   -2.04  CO2	 Pressure  83.6 atm, phi 0.760
  H2(g)           -26.37    -29.48   -3.11  H2
  H2O(g)            0.05     -0.00   -0.05  H2O	 Pressure   1.9 atm, phi 0.588
  Mtg(g)            1.28     -1.78   -3.06  Mtg	 Pressure  20.0 atm, phi 0.956
  O2(g)           -10.95    -14.12   -3.16  O2

**For a gas, SI = log10(fugacity). Fugacity = pressure * phi / 1 atm.
  For ideal gases, phi = 1.

Reaction step 4.

Using solution 1.	
Using gas phase 1.	
Using reaction 1.	

Reaction 1.	

	  1.200e+00 moles of the following reaction have been added:

	                 Relative
	Reactant            moles

	CO2                 -1.00000
	Mtg                  1.00000

	                 Relative
	Element             moles
	C                   -1.00000
	Mtg                  1.00000
	O                   -2.00000

-----------------------------------Gas phase-----------------------------------

Total pressure: 105.60      atmospheres          (Peng-Robinson calculation)
    Gas volume:   1.10e+00 liters
  Molar volume:   2.32e-01 liters/mole
   P * Vm / RT:  0.79481  (Compressibility Factor Z) 

                                                        Moles in gas
                                            ----------------------------------
Component         log P           P    phi     Initial       Final       Delta

CO2(g)             1.89   7.702e+01  0.761   4.643e+00   3.454e+00  -1.189e+00
H2O(g)             0.27   1.848e+00  0.606   0.000e+00   8.286e-02   8.286e-02
Mtg(g)             1.43   2.673e+01  0.949   0.000e+00   1.199e+00   1.199e+00

-----------------------------Solution composition------------------------------

	Elements           Molality       Moles

	C                 5.811e-01   2.819e-02
	Mtg               2.197e-02   1.066e-03

----------------------------Description of solution----------------------------

                                       pH  =   3.334      Charge balance
                                       pe  =   9.753      Adjusted to redox equilibrium
      Specific Conductance (µS/cm, 102°C)  = 331
                          Density (g/cm³)  =   0.96502
                               Volume (L)  =   0.05157
                        Viscosity (mPa s)  =   0.28125
                        Activity of water  =   0.990
                 Ionic strength (mol/kgw)  =   4.768e-04
                       Mass of water (kg)  =   4.851e-02
                 Total alkalinity (eq/kg)  =   1.621e-13
                       Total CO2 (mol/kg)  =   5.811e-01
                         Temperature (°C)  = 102.00
                           Pressure (atm)  = 105.60
                  Electrical balance (eq)  =  -7.861e-15
 Percent error, 100*(Cat-|An|)/(Cat+|An|)  =  -0.00
                               Iterations  =  16
                                  Total H  = 5.384950e+00
                                  Total O  = 2.748851e+00

----------------------------Distribution of species----------------------------

                                               Log       Log       Log    mole V
   Species          Molality    Activity  Molality  Activity     Gamma   cm³/mol

   H+              4.768e-04   4.635e-04    -3.322    -3.334    -0.012      0.00
   OH-             1.488e-09   1.445e-09    -8.827    -8.840    -0.013     -6.53
   H2O             5.551e+01   9.902e-01     1.744    -0.004     0.000     18.73
C(-4)         0.000e+00
   CH4             0.000e+00   0.000e+00   -89.734   -89.734     0.000     41.10
C(4)          5.811e-01
   CO2             5.304e-01   5.304e-01    -0.275    -0.275     0.000     38.95
   (CO2)2          2.512e-02   2.512e-02    -1.600    -1.600     0.000     77.06
   HCO3-           4.768e-04   4.632e-04    -3.322    -3.334    -0.013     24.62
   CO3-2           8.635e-11   7.691e-11   -10.064   -10.114    -0.050     -7.08
H(0)          4.839e-30
   H2              2.420e-30   2.420e-30   -29.616   -29.616     0.000     18.23
Mtg           2.197e-02
   Mtg             2.197e-02   2.197e-02    -1.658    -1.658     0.000     41.10
O(0)          2.900e-14
   O2              1.450e-14   1.450e-14   -13.839   -13.839     0.000     33.63

------------------------------Saturation indices-------------------------------

  Phase               SI** log IAP   log K(375 K, 106 atm)

  CH4(g)          -86.67    -89.73   -3.06  CH4
  CO2(g)            1.77     -0.28   -2.04  CO2	 Pressure  77.0 atm, phi 0.761
  H2(g)           -26.51    -29.62   -3.11  H2
  H2O(g)            0.05     -0.00   -0.05  H2O	 Pressure   1.8 atm, phi 0.606
  Mtg(g)            1.40     -1.66   -3.06  Mtg	 Pressure  26.7 atm, phi 0.949
  O2(g)           -10.67    -13.84   -3.16  O2

**For a gas, SI = log10(fugacity). Fugacity = pressure * phi / 1 atm.
  For ideal gases, phi = 1.

Reaction step 5.

Using solution 1.	
Using gas phase 1.	
Using reaction 1.	

Reaction 1.	

	  1.500e+00 moles of the following reaction have been added:

	                 Relative
	Reactant            moles

	CO2                 -1.00000
	Mtg                  1.00000

	                 Relative
	Element             moles
	C                   -1.00000
	Mtg                  1.00000
	O                   -2.00000

-----------------------------------Gas phase-----------------------------------

Total pressure: 105.60      atmospheres          (Peng-Robinson calculation)
    Gas volume:   1.12e+00 liters
  Molar volume:   2.36e-01 liters/mole
   P * Vm / RT:  0.80984  (Compressibility Factor Z) 

                                                        Moles in gas
                                            ----------------------------------
Component         log P           P    phi     Initial       Final       Delta

CO2(g)             1.85   7.039e+01  0.762   4.643e+00   3.157e+00  -1.486e+00
H2O(g)             0.25   1.795e+00  0.624   0.000e+00   8.051e-02   8.051e-02
Mtg(g)             1.52   3.341e+01  0.943   0.000e+00   1.499e+00   1.499e+00

-----------------------------Solution composition------------------------------

	Elements           Molality       Moles

	C                 5.281e-01   2.564e-02
	Mtg               2.729e-02   1.325e-03

----------------------------Description of solution----------------------------

                                       pH  =   3.353      Charge balance
                                       pe  =   9.795      Adjusted to redox equilibrium
      Specific Conductance (µS/cm, 102°C)  = 318
                          Density (g/cm³)  =   0.96458
                               Volume (L)  =   0.05152
                        Viscosity (mPa s)  =   0.28102
                        Activity of water  =   0.991
                 Ionic strength (mol/kgw)  =   4.561e-04
                       Mass of water (kg)  =   4.855e-02
                 Total alkalinity (eq/kg)  =   1.619e-13
                       Total CO2 (mol/kg)  =   5.281e-01
                         Temperature (°C)  = 102.00
                           Pressure (atm)  = 105.60
                  Electrical balance (eq)  =  -7.860e-15
 Percent error, 100*(Cat-|An|)/(Cat+|An|)  =  -0.00
                               Iterations  =  16
                                  Total H  = 5.389647e+00
                                  Total O  = 2.746106e+00

----------------------------Distribution of species----------------------------

                                               Log       Log       Log    mole V
   Species          Molality    Activity  Molality  Activity     Gamma   cm³/mol

   H+              4.561e-04   4.437e-04    -3.341    -3.353    -0.012      0.00
   OH-             1.555e-09   1.511e-09    -8.808    -8.821    -0.012     -6.53
   H2O             5.551e+01   9.909e-01     1.744    -0.004     0.000     18.73
C(-4)         0.000e+00
   CH4             0.000e+00   0.000e+00   -90.261   -90.261     0.000     41.10
C(4)          5.281e-01
   CO2             4.856e-01   4.856e-01    -0.314    -0.314     0.000     38.95
   (CO2)2          2.105e-02   2.105e-02    -1.677    -1.677     0.000     77.06
   HCO3-           4.561e-04   4.434e-04    -3.341    -3.353    -0.012     24.62
   CO3-2           8.614e-11   7.691e-11   -10.065   -10.114    -0.049     -7.09
H(0)          3.654e-30
   H2              1.827e-30   1.827e-30   -29.738   -29.738     0.000     18.23
Mtg           2.729e-02
   Mtg             2.729e-02   2.729e-02    -1.564    -1.564     0.000     41.10
O(0)          5.095e-14
   O2              2.548e-14   2.548e-14   -13.594   -13.594     0.000     33.63

------------------------------Saturation indices-------------------------------

  Phase               SI** log IAP   log K(375 K, 106 atm)

  CH4(g)          -87.20    -90.26   -3.06  CH4
  CO2(g)            1.73     -0.31   -2.04  CO2	 Pressure  70.4 atm, phi 0.762
  H2(g)           -26.63    -29.74   -3.11  H2
  H2O(g)            0.05     -0.00   -0.05  H2O	 Pressure   1.8 atm, phi 0.624
  Mtg(g)            1.50     -1.56   -3.06  Mtg	 Pressure  33.4 atm, phi 0.943
  O2(g)           -10.43    -13.59   -3.16  O2

**For a gas, SI = log10(fugacity). Fugacity = pressure * phi / 1 atm.
  For ideal gases, phi = 1.

Reaction step 6.

Using solution 1.	
Using gas phase 1.	
Using reaction 1.	

Reaction 1.	

	  1.800e+00 moles of the following reaction have been added:

	                 Relative
	Reactant            moles

	CO2                 -1.00000
	Mtg                  1.00000

	                 Relative
	Element             moles
	C                   -1.00000
	Mtg                  1.00000
	O                   -2.00000

-----------------------------------Gas phase-----------------------------------

Total pressure: 105.60      atmospheres          (Peng-Robinson calculation)
    Gas volume:   1.14e+00 liters
  Molar volume:   2.40e-01 liters/mole
   P * Vm / RT:  0.82409  (Compressibility Factor Z) 

                                                        Moles in gas
                                            ----------------------------------
Component         log P           P    phi     Initial       Final       Delta

CO2(g)             1.80   6.376e+01  0.764   4.643e+00   2.860e+00  -1.784e+00
H2O(g)             0.24   1.746e+00  0.642   0.000e+00   7.829e-02   7.829e-02
Mtg(g)             1.60   4.010e+01  0.938   0.000e+00   1.798e+00   1.798e+00

-----------------------------Solution composition------------------------------

	Elements           Molality       Moles

	C                 4.759e-01   2.312e-02
	Mtg               3.258e-02   1.583e-03

----------------------------Description of solution----------------------------

                                       pH  =   3.374      Charge balance
                                       pe  =   2.001      Adjusted to redox equilibrium
      Specific Conductance (µS/cm, 102°C)  = 304
                          Density (g/cm³)  =   0.96414
                               Volume (L)  =   0.05148
                        Viscosity (mPa s)  =   0.28080
                        Activity of water  =   0.992
                 Ionic strength (mol/kgw)  =   4.344e-04
                       Mass of water (kg)  =   4.859e-02
                 Total alkalinity (eq/kg)  =   1.618e-13
                       Total CO2 (mol/kg)  =   4.759e-01
                         Temperature (°C)  = 102.00
                           Pressure (atm)  = 105.60
                  Electrical balance (eq)  =  -7.863e-15
 Percent error, 100*(Cat-|An|)/(Cat+|An|)  =  -0.00
                               Iterations  =  14
                                  Total H  = 5.394088e+00
                                  Total O  = 2.743291e+00

----------------------------Distribution of species----------------------------

                                               Log       Log       Log    mole V
   Species          Molality    Activity  Molality  Activity     Gamma   cm³/mol

   H+              4.344e-04   4.229e-04    -3.362    -3.374    -0.012      0.00
   OH-             1.632e-09   1.587e-09    -8.787    -8.800    -0.012     -6.53
   H2O             5.551e+01   9.916e-01     1.744    -0.004     0.000     18.73
C(-4)         7.715e-29
   CH4             7.715e-29   7.716e-29   -28.113   -28.113     0.000     41.10
C(4)          4.759e-01
   CO2             4.408e-01   4.408e-01    -0.356    -0.356     0.000     38.95
   (CO2)2          1.734e-02   1.735e-02    -1.761    -1.761     0.000     77.06
   HCO3-           4.344e-04   4.226e-04    -3.362    -3.374    -0.012     24.61
   CO3-2           8.592e-11   7.692e-11   -10.066   -10.114    -0.048     -7.09
H(0)          1.290e-14
   H2              6.448e-15   6.449e-15   -14.191   -14.191     0.000     18.23
Mtg           3.258e-02
   Mtg             3.258e-02   3.258e-02    -1.487    -1.487     0.000     41.10
O(0)          0.000e+00
   O2              0.000e+00   0.000e+00   -44.689   -44.689     0.000     33.63

------------------------------Saturation indices-------------------------------

  Phase               SI** log IAP   log K(375 K, 106 atm)

  CH4(g)          -25.05    -28.11   -3.06  CH4
  CO2(g)            1.69     -0.36   -2.04  CO2	 Pressure  63.8 atm, phi 0.764
  H2(g)           -11.08    -14.19   -3.11  H2
  H2O(g)            0.05     -0.00   -0.05  H2O	 Pressure   1.7 atm, phi 0.642
  Mtg(g)            1.58     -1.49   -3.06  Mtg	 Pressure  40.1 atm, phi 0.938
  O2(g)           -41.52    -44.69   -3.16  O2

**For a gas, SI = log10(fugacity). Fugacity = pressure * phi / 1 atm.
  For ideal gases, phi = 1.

Reaction step 7.

Using solution 1.	
Using gas phase 1.	
Using reaction 1.	

Reaction 1.	

	  2.100e+00 moles of the following reaction have been added:

	                 Relative
	Reactant            moles

	CO2                 -1.00000
	Mtg                  1.00000

	                 Relative
	Element             moles
	C                   -1.00000
	Mtg                  1.00000
	O                   -2.00000

-----------------------------------Gas phase-----------------------------------

Total pressure: 105.60      atmospheres          (Peng-Robinson calculation)
    Gas volume:   1.16e+00 liters
  Molar volume:   2.44e-01 liters/mole
   P * Vm / RT:  0.83761  (Compressibility Factor Z) 

                                                        Moles in gas
                                            ----------------------------------
Component         log P           P    phi     Initial       Final       Delta

CO2(g)             1.76   5.712e+01  0.765   4.643e+00   2.562e+00  -2.081e+00
H2O(g)             0.23   1.699e+00  0.660   0.000e+00   7.619e-02   7.619e-02
Mtg(g)             1.67   4.678e+01  0.934   0.000e+00   2.098e+00   2.098e+00

-----------------------------Solution composition------------------------------

	Elements           Molality       Moles

	C                 4.243e-01   2.063e-02
	Mtg               3.783e-02   1.840e-03

----------------------------Description of solution----------------------------

                                       pH  =   3.397      Charge balance
                                       pe  =   9.774      Adjusted to redox equilibrium
      Specific Conductance (µS/cm, 102°C)  = 289
                          Density (g/cm³)  =   0.96370
                               Volume (L)  =   0.05143
                        Viscosity (mPa s)  =   0.28057
                        Activity of water  =   0.992
                 Ionic strength (mol/kgw)  =   4.116e-04
                       Mass of water (kg)  =   4.863e-02
                 Total alkalinity (eq/kg)  =   1.617e-13
                       Total CO2 (mol/kg)  =   4.243e-01
                         Temperature (°C)  = 102.00
                           Pressure (atm)  = 105.60
                  Electrical balance (eq)  =  -7.863e-15
 Percent error, 100*(Cat-|An|)/(Cat+|An|)  =  -0.00
                               Iterations  =  16
                                  Total H  = 5.398304e+00
                                  Total O  = 2.740414e+00

----------------------------Distribution of species----------------------------

                                               Log       Log       Log    mole V
   Species          Molality    Activity  Molality  Activity     Gamma   cm³/mol

   H+              4.116e-04   4.009e-04    -3.386    -3.397    -0.011      0.00
   OH-             1.721e-09   1.675e-09    -8.764    -8.776    -0.012     -6.53
   H2O             5.551e+01   9.924e-01     1.744    -0.003     0.000     18.73
C(-4)         0.000e+00
   CH4             0.000e+00   0.000e+00   -90.535   -90.535     0.000     41.10
C(4)          4.243e-01
   CO2             3.959e-01   3.959e-01    -0.402    -0.402     0.000     38.95
   (CO2)2          1.399e-02   1.399e-02    -1.854    -1.854     0.000     77.06
   HCO3-           4.116e-04   4.006e-04    -3.386    -3.397    -0.012     24.61
   CO3-2           8.568e-11   7.692e-11   -10.067   -10.114    -0.047     -7.10
H(0)          3.286e-30
   H2              1.643e-30   1.643e-30   -29.784   -29.784     0.000     18.23
Mtg           3.783e-02
   Mtg             3.783e-02   3.784e-02    -1.422    -1.422     0.000     41.10
O(0)          6.317e-14
   O2              3.158e-14   3.159e-14   -13.501   -13.500     0.000     33.63

------------------------------Saturation indices-------------------------------

  Phase               SI** log IAP   log K(375 K, 106 atm)

  CH4(g)          -87.47    -90.53   -3.06  CH4
  CO2(g)            1.64     -0.40   -2.04  CO2	 Pressure  57.1 atm, phi 0.765
  H2(g)           -26.68    -29.78   -3.11  H2
  H2O(g)            0.05     -0.00   -0.05  H2O	 Pressure   1.7 atm, phi 0.660
  Mtg(g)            1.64     -1.42   -3.06  Mtg	 Pressure  46.8 atm, phi 0.934
  O2(g)           -10.34    -13.50   -3.16  O2

**For a gas, SI = log10(fugacity). Fugacity = pressure * phi / 1 atm.
  For ideal gases, phi = 1.

Reaction step 8.

Using solution 1.	
Using gas phase 1.	
Using reaction 1.	

Reaction 1.	

	  2.400e+00 moles of the following reaction have been added:

	                 Relative
	Reactant            moles

	CO2                 -1.00000
	Mtg                  1.00000

	                 Relative
	Element             moles
	C                   -1.00000
	Mtg                  1.00000
	O                   -2.00000

-----------------------------------Gas phase-----------------------------------

Total pressure: 105.60      atmospheres          (Peng-Robinson calculation)
    Gas volume:   1.17e+00 liters
  Molar volume:   2.48e-01 liters/mole
   P * Vm / RT:  0.85049  (Compressibility Factor Z) 

                                                        Moles in gas
                                            ----------------------------------
Component         log P           P    phi     Initial       Final       Delta

CO2(g)             1.70   5.049e+01  0.768   4.643e+00   2.264e+00  -2.379e+00
H2O(g)             0.22   1.654e+00  0.679   0.000e+00   7.418e-02   7.418e-02
Mtg(g)             1.73   5.346e+01  0.931   0.000e+00   2.398e+00   2.398e+00

-----------------------------Solution composition------------------------------

	Elements           Molality       Moles

	C                 3.732e-01   1.816e-02
	Mtg               4.307e-02   2.096e-03

----------------------------Description of solution----------------------------

                                       pH  =   3.423      Charge balance
                                       pe  =   9.322      Adjusted to redox equilibrium
      Specific Conductance (µS/cm, 102°C)  = 273
                          Density (g/cm³)  =   0.96327
                               Volume (L)  =   0.05138
                        Viscosity (mPa s)  =   0.28035
                        Activity of water  =   0.993
                 Ionic strength (mol/kgw)  =   3.873e-04
                       Mass of water (kg)  =   4.866e-02
                 Total alkalinity (eq/kg)  =   1.616e-13
                       Total CO2 (mol/kg)  =   3.732e-01
                         Temperature (°C)  = 102.00
                           Pressure (atm)  = 105.60
                  Electrical balance (eq)  =  -7.863e-15
 Percent error, 100*(Cat-|An|)/(Cat+|An|)  =  -0.00
                               Iterations  =  25
                                  Total H  = 5.402317e+00
                                  Total O  = 2.737483e+00

----------------------------Distribution of species----------------------------

                                               Log       Log       Log    mole V
   Species          Molality    Activity  Molality  Activity     Gamma   cm³/mol

   H+              3.873e-04   3.775e-04    -3.412    -3.423    -0.011      0.00
   OH-             1.827e-09   1.780e-09    -8.738    -8.750    -0.012     -6.53
   H2O             5.551e+01   9.931e-01     1.744    -0.003     0.000     18.73
C(-4)         0.000e+00
   CH4             0.000e+00   0.000e+00   -87.177   -87.177     0.000     41.10
C(4)          3.732e-01
   CO2             3.509e-01   3.509e-01    -0.455    -0.455     0.000     38.95
   (CO2)2          1.099e-02   1.099e-02    -1.959    -1.959     0.000     77.06
   HCO3-           3.873e-04   3.773e-04    -3.412    -3.423    -0.011     24.61
   CO3-2           8.542e-11   7.692e-11   -10.068   -10.114    -0.045     -7.10
H(0)          2.341e-29
   H2              1.170e-29   1.171e-29   -28.932   -28.932     0.000     18.23
Mtg           4.307e-02
   Mtg             4.307e-02   4.307e-02    -1.366    -1.366     0.000     41.10
O(0)          1.247e-15
   O2              6.234e-16   6.234e-16   -15.205   -15.205     0.000     33.63

------------------------------Saturation indices-------------------------------

  Phase               SI** log IAP   log K(375 K, 106 atm)

  CH4(g)          -84.11    -87.18   -3.06  CH4
  CO2(g)            1.59     -0.45   -2.04  CO2	 Pressure  50.5 atm, phi 0.768
  H2(g)           -25.82    -28.93   -3.11  H2
  H2O(g)            0.05     -0.00   -0.05  H2O	 Pressure   1.7 atm, phi 0.679
  Mtg(g)            1.70     -1.37   -3.06  Mtg	 Pressure  53.5 atm, phi 0.931
  O2(g)           -12.04    -15.21   -3.16  O2

**For a gas, SI = log10(fugacity). Fugacity = pressure * phi / 1 atm.
  For ideal gases, phi = 1.

Reaction step 9.

Using solution 1.	
Using gas phase 1.	
Using reaction 1.	

Reaction 1.	

	  2.700e+00 moles of the following reaction have been added:

	                 Relative
	Reactant            moles

	CO2                 -1.00000
	Mtg                  1.00000

	                 Relative
	Element             moles
	C                   -1.00000
	Mtg                  1.00000
	O                   -2.00000

-----------------------------------Gas phase-----------------------------------

Total pressure: 105.60      atmospheres          (Peng-Robinson calculation)
    Gas volume:   1.19e+00 liters
  Molar volume:   2.52e-01 liters/mole
   P * Vm / RT:  0.86275  (Compressibility Factor Z) 

                                                        Moles in gas
                                            ----------------------------------
Component         log P           P    phi     Initial       Final       Delta

CO2(g)             1.64   4.385e+01  0.770   4.643e+00   1.967e+00  -2.677e+00
H2O(g)             0.21   1.611e+00  0.697   0.000e+00   7.226e-02   7.226e-02
Mtg(g)             1.78   6.014e+01  0.927   0.000e+00   2.698e+00   2.698e+00

-----------------------------Solution composition------------------------------

	Elements           Molality       Moles

	C                 3.227e-01   1.572e-02
	Mtg               4.829e-02   2.352e-03

----------------------------Description of solution----------------------------

                                       pH  =   3.453      Charge balance
                                       pe  =   9.443      Adjusted to redox equilibrium
      Specific Conductance (µS/cm, 102°C)  = 255
                          Density (g/cm³)  =   0.96284
                               Volume (L)  =   0.05134
                        Viscosity (mPa s)  =   0.28013
                        Activity of water  =   0.994
                 Ionic strength (mol/kgw)  =   3.613e-04
                       Mass of water (kg)  =   4.870e-02
                 Total alkalinity (eq/kg)  =   1.614e-13
                       Total CO2 (mol/kg)  =   3.227e-01
                         Temperature (°C)  = 102.00
                           Pressure (atm)  = 105.60
                  Electrical balance (eq)  =  -7.861e-15
 Percent error, 100*(Cat-|An|)/(Cat+|An|)  =  -0.00
                               Iterations  =  28
                                  Total H  = 5.406150e+00
                                  Total O  = 2.734506e+00

----------------------------Distribution of species----------------------------

                                               Log       Log       Log    mole V
   Species          Molality    Activity  Molality  Activity     Gamma   cm³/mol

   H+              3.613e-04   3.525e-04    -3.442    -3.453    -0.011      0.00
   OH-             1.957e-09   1.907e-09    -8.708    -8.720    -0.011     -6.53
   H2O             5.551e+01   9.938e-01     1.744    -0.003     0.000     18.73
C(-4)         0.000e+00
   CH4             0.000e+00   0.000e+00   -88.443   -88.443     0.000     41.10
C(4)          3.227e-01
   CO2             3.057e-01   3.057e-01    -0.515    -0.515     0.000     38.95
   (CO2)2          8.341e-03   8.341e-03    -2.079    -2.079     0.000     77.06
   HCO3-           3.613e-04   3.523e-04    -3.442    -3.453    -0.011     24.61
   CO3-2           8.512e-11   7.693e-11   -10.070   -10.114    -0.044     -7.11
H(0)          1.170e-29
   H2              5.849e-30   5.850e-30   -29.233   -29.233     0.000     18.23
Mtg           4.829e-02
   Mtg             4.829e-02   4.830e-02    -1.316    -1.316     0.000     41.10
O(0)          5.000e-15
   O2              2.500e-15   2.500e-15   -14.602   -14.602     0.000     33.63

------------------------------Saturation indices-------------------------------

  Phase               SI** log IAP   log K(375 K, 106 atm)

  CH4(g)          -85.38    -88.44   -3.06  CH4
  CO2(g)            1.53     -0.51   -2.04  CO2	 Pressure  43.8 atm, phi 0.770
  H2(g)           -26.12    -29.23   -3.11  H2
  H2O(g)            0.05     -0.00   -0.05  H2O	 Pressure   1.6 atm, phi 0.697
  Mtg(g)            1.75     -1.32   -3.06  Mtg	 Pressure  60.1 atm, phi 0.927
  O2(g)           -11.44    -14.60   -3.16  O2

**For a gas, SI = log10(fugacity). Fugacity = pressure * phi / 1 atm.
  For ideal gases, phi = 1.

Reaction step 10.

Using solution 1.	
Using gas phase 1.	
Using reaction 1.	

Reaction 1.	

	  3.000e+00 moles of the following reaction have been added:

	                 Relative
	Reactant            moles

	CO2                 -1.00000
	Mtg                  1.00000

	                 Relative
	Element             moles
	C                   -1.00000
	Mtg                  1.00000
	O                   -2.00000

-----------------------------------Gas phase-----------------------------------

Total pressure: 105.60      atmospheres          (Peng-Robinson calculation)
    Gas volume:   1.21e+00 liters
  Molar volume:   2.55e-01 liters/mole
   P * Vm / RT:  0.87446  (Compressibility Factor Z) 

                                                        Moles in gas
                                            ----------------------------------
Component         log P           P    phi     Initial       Final       Delta

CO2(g)             1.57   3.721e+01  0.772   4.643e+00   1.669e+00  -2.974e+00
H2O(g)             0.20   1.570e+00  0.716   0.000e+00   7.043e-02   7.043e-02
Mtg(g)             1.82   6.682e+01  0.925   0.000e+00   2.997e+00   2.997e+00

-----------------------------Solution composition------------------------------

	Elements           Molality       Moles

	C                 2.727e-01   1.329e-02
	Mtg               5.351e-02   2.607e-03

----------------------------Description of solution----------------------------

                                       pH  =   3.488      Charge balance
                                       pe  =   9.721      Adjusted to redox equilibrium
      Specific Conductance (µS/cm, 102°C)  = 236
                          Density (g/cm³)  =   0.96241
                               Volume (L)  =   0.05129
                        Viscosity (mPa s)  =   0.27991
                        Activity of water  =   0.995
                 Ionic strength (mol/kgw)  =   3.332e-04
                       Mass of water (kg)  =   4.873e-02
                 Total alkalinity (eq/kg)  =   1.613e-13
                       Total CO2 (mol/kg)  =   2.727e-01
                         Temperature (°C)  = 102.00
                           Pressure (atm)  = 105.60
                  Electrical balance (eq)  =  -7.862e-15
 Percent error, 100*(Cat-|An|)/(Cat+|An|)  =  -0.00
                               Iterations  =  22
                                  Total H  = 5.409819e+00
                                  Total O  = 2.731486e+00

----------------------------Distribution of species----------------------------

                                               Log       Log       Log    mole V
   Species          Molality    Activity  Molality  Activity     Gamma   cm³/mol

   H+              3.332e-04   3.254e-04    -3.477    -3.488    -0.010      0.00
   OH-             2.119e-09   2.068e-09    -8.674    -8.684    -0.011     -6.53
   H2O             5.551e+01   9.946e-01     1.744    -0.002     0.000     18.73
C(-4)         0.000e+00
   CH4             0.000e+00   0.000e+00   -91.021   -91.021     0.000     41.10
C(4)          2.727e-01
   CO2             2.603e-01   2.603e-01    -0.585    -0.585     0.000     38.95
   (CO2)2          6.047e-03   6.047e-03    -2.218    -2.218     0.000     77.06
   HCO3-           3.332e-04   3.252e-04    -3.477    -3.488    -0.011     24.61
   CO3-2           8.480e-11   7.693e-11   -10.072   -10.114    -0.042     -7.11
H(0)          2.763e-30
   H2              1.381e-30   1.381e-30   -29.860   -29.860     0.000     18.23
Mtg           5.351e-02
   Mtg             5.351e-02   5.351e-02    -1.272    -1.272     0.000     41.10
O(0)          8.979e-14
   O2              4.489e-14   4.490e-14   -13.348   -13.348     0.000     33.63

------------------------------Saturation indices-------------------------------

  Phase               SI** log IAP   log K(375 K, 106 atm)

  CH4(g)          -87.96    -91.02   -3.06  CH4
  CO2(g)            1.46     -0.58   -2.04  CO2	 Pressure  37.2 atm, phi 0.772
  H2(g)           -26.75    -29.86   -3.11  H2
  H2O(g)            0.05     -0.00   -0.05  H2O	 Pressure   1.6 atm, phi 0.716
  Mtg(g)            1.79     -1.27   -3.06  Mtg	 Pressure  66.8 atm, phi 0.925
  O2(g)           -10.18    -13.35   -3.16  O2

**For a gas, SI = log10(fugacity). Fugacity = pressure * phi / 1 atm.
  For ideal gases, phi = 1.

------------------
End of simulation.
------------------

------------------------------------
Reading input data for simulation 2.
------------------------------------

	USE solution 1
	 REACTION_PRESSURE
	 200
	GAS_PHASE 1
	 fixed_pressure
	 temp 102
	 pressure 200
	 Mtg(g) 0
	  CO2(g) 200
	  H2O(g) 0
	REACTION
	 CO2 -1 Mtg 1
	 6 in 10
	END
-----------------------------------------
Beginning of batch-reaction calculations.
-----------------------------------------

Reaction step 1.

Using solution 1.	
Using gas phase 1.	
Using pressure 1.	
Using reaction 1.	

Reaction 1.	

	  6.000e-01 moles of the following reaction have been added:

	                 Relative
	Reactant            moles

	CO2                 -1.00000
	Mtg                  1.00000

	                 Relative
	Element             moles
	C                   -1.00000
	Mtg                  1.00000
	O                   -2.00000

-----------------------------------Gas phase-----------------------------------

Total pressure: 200.00      atmospheres          (Peng-Robinson calculation)
    Gas volume:   1.04e+00 liters
  Molar volume:   9.78e-02 liters/mole
   P * Vm / RT:  0.63524  (Compressibility Factor Z) 

                                                        Moles in gas
                                            ----------------------------------
Component         log P           P    phi     Initial       Final       Delta

CO2(g)             2.27   1.849e+02  0.614   1.041e+01   9.804e+00  -6.101e-01
H2O(g)             0.58   3.821e+00  0.308   0.000e+00   2.026e-01   2.026e-01
Mtg(g)             1.05   1.131e+01  1.011   0.000e+00   5.996e-01   5.996e-01

-----------------------------Solution composition------------------------------

	Elements           Molality       Moles

	C                 1.063e+00   4.926e-02
	Mtg               8.734e-03   4.048e-04

----------------------------Description of solution----------------------------

                                       pH  =   3.197      Charge balance
                                       pe  =  10.111      Adjusted to redox equilibrium
      Specific Conductance (µS/cm, 102°C)  = 439
                          Density (g/cm³)  =   0.97270
                               Volume (L)  =   0.04989
                        Viscosity (mPa s)  =   0.28594
                        Activity of water  =   0.983
                 Ionic strength (mol/kgw)  =   6.569e-04
                       Mass of water (kg)  =   4.635e-02
                 Total alkalinity (eq/kg)  =   1.696e-13
                       Total CO2 (mol/kg)  =   1.063e+00
                         Temperature (°C)  = 102.00
                           Pressure (atm)  = 200.00
                  Electrical balance (eq)  =  -7.859e-15
 Percent error, 100*(Cat-|An|)/(Cat+|An|)  =  -0.00
                               Iterations  =  14
                                  Total H  = 5.145389e+00
                                  Total O  = 2.671219e+00

----------------------------Distribution of species----------------------------

                                               Log       Log       Log    mole V
   Species          Molality    Activity  Molality  Activity     Gamma   cm³/mol

   H+              6.569e-04   6.359e-04    -3.182    -3.197    -0.014      0.00
   OH-             1.171e-09   1.132e-09    -8.931    -8.946    -0.015     -6.90
   H2O             5.551e+01   9.830e-01     1.744    -0.007     0.000     18.65
C(-4)         0.000e+00
   CH4             0.000e+00   0.000e+00   -91.308   -91.308     0.000     40.98
C(4)          1.063e+00
   CO2             9.130e-01   9.131e-01    -0.040    -0.039     0.000     38.66
   (CO2)2          7.461e-02   7.462e-02    -1.127    -1.127     0.000     76.48
   HCO3-           6.569e-04   6.353e-04    -3.182    -3.197    -0.015     25.04
   CO3-2           9.645e-11   8.435e-11   -10.016   -10.074    -0.058     -5.95
H(0)          1.659e-30
   H2              8.297e-31   8.298e-31   -30.081   -30.081     0.000     18.10
Mtg           8.734e-03
   Mtg             8.734e-03   8.735e-03    -2.059    -2.059     0.000     40.98
O(0)          2.205e-13
   O2              1.102e-13   1.103e-13   -12.958   -12.958     0.000     33.34

------------------------------Saturation indices-------------------------------

  Phase               SI** log IAP   log K(375 K, 200 atm)

  CH4(g)          -88.19    -91.31   -3.12  CH4
  CO2(g)            2.05     -0.04   -2.09  CO2	 Pressure 184.9 atm, phi 0.614
  H2(g)           -26.95    -30.08   -3.13  H2
  H2O(g)            0.07     -0.01   -0.08  H2O	 Pressure   3.8 atm, phi 0.308
  Mtg(g)            1.06     -2.06   -3.12  Mtg	 Pressure  11.3 atm, phi 1.011
  O2(g)            -9.75    -12.96   -3.21  O2

**For a gas, SI = log10(fugacity). Fugacity = pressure * phi / 1 atm.
  For ideal gases, phi = 1.

Reaction step 2.

Using solution 1.	
Using gas phase 1.	
Using pressure 1.	
Using reaction 1.	

Reaction 1.	

	  1.200e+00 moles of the following reaction have been added:

	                 Relative
	Reactant            moles

	CO2                 -1.00000
	Mtg                  1.00000

	                 Relative
	Element             moles
	C                   -1.00000
	Mtg                  1.00000
	O                   -2.00000

-----------------------------------Gas phase-----------------------------------

Total pressure: 200.00      atmospheres          (Peng-Robinson calculation)
    Gas volume:   1.08e+00 liters
  Molar volume:   1.02e-01 liters/mole
   P * Vm / RT:  0.66050  (Compressibility Factor Z) 

                                                        Moles in gas
                                            ----------------------------------
Component         log P           P    phi     Initial       Final       Delta

CO2(g)             2.24   1.738e+02  0.614   1.041e+01   9.207e+00  -1.207e+00
H2O(g)             0.55   3.558e+00  0.331   0.000e+00   1.885e-01   1.885e-01
Mtg(g)             1.35   2.264e+01  0.988   0.000e+00   1.199e+00   1.199e+00

-----------------------------Solution composition------------------------------

	Elements           Molality       Moles

	C                 9.917e-01   4.622e-02
	Mtg               1.708e-02   7.958e-04

----------------------------Description of solution----------------------------

                                       pH  =   3.210      Charge balance
                                       pe  =   1.627      Adjusted to redox equilibrium
      Specific Conductance (µS/cm, 102°C)  = 428
                          Density (g/cm³)  =   0.97208
                               Volume (L)  =   0.05005
                        Viscosity (mPa s)  =   0.28563
                        Activity of water  =   0.984
                 Ionic strength (mol/kgw)  =   6.372e-04
                       Mass of water (kg)  =   4.660e-02
                 Total alkalinity (eq/kg)  =   1.746e-13
                       Total CO2 (mol/kg)  =   9.917e-01
                         Temperature (°C)  = 102.00
                           Pressure (atm)  = 200.00
                  Electrical balance (eq)  =  -8.137e-15
 Percent error, 100*(Cat-|An|)/(Cat+|An|)  =  -0.00
                               Iterations  =  19
                                  Total H  = 5.173738e+00
                                  Total O  = 2.679305e+00

----------------------------Distribution of species----------------------------

                                               Log       Log       Log    mole V
   Species          Molality    Activity  Molality  Activity     Gamma   cm³/mol

   H+              6.372e-04   6.171e-04    -3.196    -3.210    -0.014      0.00
   OH-             1.208e-09   1.168e-09    -8.918    -8.933    -0.015     -6.90
   H2O             5.551e+01   9.840e-01     1.744    -0.007     0.000     18.65
C(-4)         2.727e-24
   CH4             2.727e-24   2.728e-24   -23.564   -23.564     0.000     40.98
C(4)          9.917e-01
   CO2             8.590e-01   8.591e-01    -0.066    -0.066     0.000     38.66
   (CO2)2          6.604e-02   6.605e-02    -1.180    -1.180     0.000     76.48
   HCO3-           6.372e-04   6.165e-04    -3.196    -3.210    -0.014     25.04
   CO3-2           9.627e-11   8.435e-11   -10.017   -10.074    -0.057     -5.95
H(0)          1.454e-13
   H2              7.272e-14   7.273e-14   -13.138   -13.138     0.000     18.10
Mtg           1.708e-02
   Mtg             1.708e-02   1.708e-02    -1.768    -1.768     0.000     40.98
O(0)          0.000e+00
   O2              0.000e+00   0.000e+00   -46.842   -46.842     0.000     33.34

------------------------------Saturation indices-------------------------------

  Phase               SI** log IAP   log K(375 K, 200 atm)

  CH4(g)          -20.45    -23.56   -3.12  CH4
  CO2(g)            2.03     -0.07   -2.09  CO2	 Pressure 173.8 atm, phi 0.614
  H2(g)           -10.01    -13.14   -3.13  H2
  H2O(g)            0.07     -0.01   -0.08  H2O	 Pressure   3.6 atm, phi 0.331
  Mtg(g)            1.35     -1.77   -3.12  Mtg	 Pressure  22.6 atm, phi 0.988
  O2(g)           -43.63    -46.84   -3.21  O2

**For a gas, SI = log10(fugacity). Fugacity = pressure * phi / 1 atm.
  For ideal gases, phi = 1.

Reaction step 3.

Using solution 1.	
Using gas phase 1.	
Using pressure 1.	
Using reaction 1.	

Reaction 1.	

	  1.800e+00 moles of the following reaction have been added:

	                 Relative
	Reactant            moles

	CO2                 -1.00000
	Mtg                  1.00000

	                 Relative
	Element             moles
	C                   -1.00000
	Mtg                  1.00000
	O                   -2.00000

-----------------------------------Gas phase-----------------------------------

Total pressure: 200.00      atmospheres          (Peng-Robinson calculation)
    Gas volume:   1.12e+00 liters
  Molar volume:   1.05e-01 liters/mole
   P * Vm / RT:  0.68456  (Compressibility Factor Z) 

                                                        Moles in gas
                                            ----------------------------------
Component         log P           P    phi     Initial       Final       Delta

CO2(g)             2.21   1.627e+02  0.615   1.041e+01   8.611e+00  -1.804e+00
H2O(g)             0.52   3.328e+00  0.354   0.000e+00   1.761e-01   1.761e-01
Mtg(g)             1.53   3.399e+01  0.968   0.000e+00   1.799e+00   1.799e+00

-----------------------------Solution composition------------------------------

	Elements           Molality       Moles

	C                 9.224e-01   4.319e-02
	Mtg               2.512e-02   1.176e-03

----------------------------Description of solution----------------------------

                                       pH  =   3.223      Charge balance
                                       pe  =   9.616      Adjusted to redox equilibrium
      Specific Conductance (µS/cm, 102°C)  = 417
                          Density (g/cm³)  =   0.97148
                               Volume (L)  =   0.05018
                        Viscosity (mPa s)  =   0.28533
                        Activity of water  =   0.985
                 Ionic strength (mol/kgw)  =   6.171e-04
                       Mass of water (kg)  =   4.683e-02
                 Total alkalinity (eq/kg)  =   1.673e-13
                       Total CO2 (mol/kg)  =   9.224e-01
                         Temperature (°C)  = 102.00
                           Pressure (atm)  = 200.00
                  Electrical balance (eq)  =  -7.834e-15
 Percent error, 100*(Cat-|An|)/(Cat+|An|)  =  -0.00
                               Iterations  =  26
                                  Total H  = 5.198389e+00
                                  Total O  = 2.685584e+00

----------------------------Distribution of species----------------------------

                                               Log       Log       Log    mole V
   Species          Molality    Activity  Molality  Activity     Gamma   cm³/mol

   H+              6.171e-04   5.979e-04    -3.210    -3.223    -0.014      0.00
   OH-             1.247e-09   1.206e-09    -8.904    -8.919    -0.014     -6.90
   H2O             5.551e+01   9.849e-01     1.744    -0.007     0.000     18.65
C(-4)         0.000e+00
   CH4             0.000e+00   0.000e+00   -87.613   -87.613     0.000     40.98
C(4)          9.224e-01
   CO2             8.056e-01   8.057e-01    -0.094    -0.094     0.000     38.66
   (CO2)2          5.809e-02   5.810e-02    -1.236    -1.236     0.000     76.48
   HCO3-           6.171e-04   5.974e-04    -3.210    -3.224    -0.014     25.04
   CO3-2           9.608e-11   8.436e-11   -10.017   -10.074    -0.057     -5.95
H(0)          1.437e-29
   H2              7.187e-30   7.188e-30   -29.143   -29.143     0.000     18.10
Mtg           2.512e-02
   Mtg             2.512e-02   2.513e-02    -1.600    -1.600     0.000     40.98
O(0)          2.949e-15
   O2              1.475e-15   1.475e-15   -14.831   -14.831     0.000     33.34

------------------------------Saturation indices-------------------------------

  Phase               SI** log IAP   log K(375 K, 200 atm)

  CH4(g)          -84.50    -87.61   -3.12  CH4
  CO2(g)            2.00     -0.09   -2.09  CO2	 Pressure 162.7 atm, phi 0.615
  H2(g)           -26.01    -29.14   -3.13  H2
  H2O(g)            0.07     -0.01   -0.08  H2O	 Pressure   3.3 atm, phi 0.354
  Mtg(g)            1.52     -1.60   -3.12  Mtg	 Pressure  34.0 atm, phi 0.968
  O2(g)           -11.62    -14.83   -3.21  O2

**For a gas, SI = log10(fugacity). Fugacity = pressure * phi / 1 atm.
  For ideal gases, phi = 1.

Reaction step 4.

Using solution 1.	
Using gas phase 1.	
Using pressure 1.	
Using reaction 1.	

Reaction 1.	

	  2.400e+00 moles of the following reaction have been added:

	                 Relative
	Reactant            moles

	CO2                 -1.00000
	Mtg                  1.00000

	                 Relative
	Element             moles
	C                   -1.00000
	Mtg                  1.00000
	O                   -2.00000

-----------------------------------Gas phase-----------------------------------

Total pressure: 200.00      atmospheres          (Peng-Robinson calculation)
    Gas volume:   1.15e+00 liters
  Molar volume:   1.09e-01 liters/mole
   P * Vm / RT:  0.70745  (Compressibility Factor Z) 

                                                        Moles in gas
                                            ----------------------------------
Component         log P           P    phi     Initial       Final       Delta

CO2(g)             2.18   1.515e+02  0.617   1.041e+01   8.014e+00  -2.401e+00
H2O(g)             0.49   3.126e+00  0.377   0.000e+00   1.653e-01   1.653e-01
Mtg(g)             1.66   4.535e+01  0.951   0.000e+00   2.398e+00   2.398e+00

-----------------------------Solution composition------------------------------

	Elements           Molality       Moles

	C                 8.546e-01   4.019e-02
	Mtg               3.295e-02   1.550e-03

----------------------------Description of solution----------------------------

                                       pH  =   3.238      Charge balance
                                       pe  =   1.754      Adjusted to redox equilibrium
      Specific Conductance (µS/cm, 102°C)  = 405
                          Density (g/cm³)  =   0.97089
                               Volume (L)  =   0.05028
                        Viscosity (mPa s)  =   0.28504
                        Activity of water  =   0.986
                 Ionic strength (mol/kgw)  =   5.964e-04
                       Mass of water (kg)  =   4.702e-02
                 Total alkalinity (eq/kg)  =   1.673e-13
                       Total CO2 (mol/kg)  =   8.546e-01
                         Temperature (°C)  = 102.00
                           Pressure (atm)  = 200.00
                  Electrical balance (eq)  =  -7.865e-15
 Percent error, 100*(Cat-|An|)/(Cat+|An|)  =  -0.00
                               Iterations  =  22
                                  Total H  = 5.220063e+00
                                  Total O  = 2.690404e+00

----------------------------Distribution of species----------------------------

                                               Log       Log       Log    mole V
   Species          Molality    Activity  Molality  Activity     Gamma   cm³/mol

   H+              5.964e-04   5.782e-04    -3.224    -3.238    -0.014      0.00
   OH-             1.290e-09   1.249e-09    -8.889    -8.904    -0.014     -6.90
   H2O             5.551e+01   9.858e-01     1.744    -0.006     0.000     18.65
C(-4)         1.351e-25
   CH4             1.351e-25   1.351e-25   -24.869   -24.869     0.000     40.98
C(4)          8.546e-01
   CO2             7.526e-01   7.527e-01    -0.123    -0.123     0.000     38.66
   (CO2)2          5.070e-02   5.071e-02    -1.295    -1.295     0.000     76.48
   HCO3-           5.964e-04   5.776e-04    -3.224    -3.238    -0.014     25.03
   CO3-2           9.588e-11   8.436e-11   -10.018   -10.074    -0.056     -5.95
H(0)          7.099e-14
   H2              3.549e-14   3.550e-14   -13.450   -13.450     0.000     18.10
Mtg           3.295e-02
   Mtg             3.295e-02   3.296e-02    -1.482    -1.482     0.000     40.98
O(0)          0.000e+00
   O2              0.000e+00   0.000e+00   -46.218   -46.218     0.000     33.34

------------------------------Saturation indices-------------------------------

  Phase               SI** log IAP   log K(375 K, 200 atm)

  CH4(g)          -21.75    -24.87   -3.12  CH4
  CO2(g)            1.97     -0.12   -2.09  CO2	 Pressure 151.5 atm, phi 0.617
  H2(g)           -10.32    -13.45   -3.13  H2
  H2O(g)            0.07     -0.01   -0.08  H2O	 Pressure   3.1 atm, phi 0.377
  Mtg(g)            1.63     -1.48   -3.12  Mtg	 Pressure  45.4 atm, phi 0.951
  O2(g)           -43.01    -46.22   -3.21  O2

**For a gas, SI = log10(fugacity). Fugacity = pressure * phi / 1 atm.
  For ideal gases, phi = 1.

Reaction step 5.

Using solution 1.	
Using gas phase 1.	
Using pressure 1.	
Using reaction 1.	

Reaction 1.	

	  3.000e+00 moles of the following reaction have been added:

	                 Relative
	Reactant            moles

	CO2                 -1.00000
	Mtg                  1.00000

	                 Relative
	Element             moles
	C                   -1.00000
	Mtg                  1.00000
	O                   -2.00000

-----------------------------------Gas phase-----------------------------------

Total pressure: 200.00      atmospheres          (Peng-Robinson calculation)
    Gas volume:   1.19e+00 liters
  Molar volume:   1.12e-01 liters/mole
   P * Vm / RT:  0.72923  (Compressibility Factor Z) 

                                                        Moles in gas
                                            ----------------------------------
Component         log P           P    phi     Initial       Final       Delta

CO2(g)             2.15   1.403e+02  0.619   1.041e+01   7.417e+00  -2.998e+00
H2O(g)             0.47   2.946e+00  0.401   0.000e+00   1.557e-01   1.557e-01
Mtg(g)             1.75   5.673e+01  0.938   0.000e+00   2.998e+00   2.998e+00

-----------------------------Solution composition------------------------------

	Elements           Molality       Moles

	C                 7.879e-01   3.719e-02
	Mtg               4.062e-02   1.917e-03

----------------------------Description of solution----------------------------

                                       pH  =   3.254      Charge balance
                                       pe  =   9.985      Adjusted to redox equilibrium
      Specific Conductance (µS/cm, 102°C)  = 392
                          Density (g/cm³)  =   0.97031
                               Volume (L)  =   0.05036
                        Viscosity (mPa s)  =   0.28475
                        Activity of water  =   0.987
                 Ionic strength (mol/kgw)  =   5.750e-04
                       Mass of water (kg)  =   4.720e-02
                 Total alkalinity (eq/kg)  =   1.666e-13
                       Total CO2 (mol/kg)  =   7.879e-01
                         Temperature (°C)  = 102.00
                           Pressure (atm)  = 200.00
                  Electrical balance (eq)  =  -7.862e-15
 Percent error, 100*(Cat-|An|)/(Cat+|An|)  =  -0.00
                               Iterations  =  20
                                  Total H  = 5.239309e+00
                                  Total O  = 2.694029e+00

----------------------------Distribution of species----------------------------

                                               Log       Log       Log    mole V
   Species          Molality    Activity  Molality  Activity     Gamma   cm³/mol

   H+              5.750e-04   5.577e-04    -3.240    -3.254    -0.013      0.00
   OH-             1.338e-09   1.296e-09    -8.874    -8.888    -0.014     -6.90
   H2O             5.551e+01   9.866e-01     1.744    -0.006     0.000     18.65
C(-4)         0.000e+00
   CH4             0.000e+00   0.000e+00   -90.869   -90.869     0.000     40.98
C(4)          7.879e-01
   CO2             6.997e-01   6.998e-01    -0.155    -0.155     0.000     38.66
   (CO2)2          4.382e-02   4.383e-02    -1.358    -1.358     0.000     76.48
   HCO3-           5.750e-04   5.572e-04    -3.240    -3.254    -0.014     25.03
   CO3-2           9.567e-11   8.436e-11   -10.019   -10.074    -0.055     -5.96
H(0)          2.287e-30
   H2              1.143e-30   1.144e-30   -29.942   -29.942     0.000     18.10
Mtg           4.062e-02
   Mtg             4.062e-02   4.063e-02    -1.391    -1.391     0.000     40.98
O(0)          1.169e-13
   O2              5.847e-14   5.847e-14   -13.233   -13.233     0.000     33.34

------------------------------Saturation indices-------------------------------

  Phase               SI** log IAP   log K(375 K, 200 atm)

  CH4(g)          -87.75    -90.87   -3.12  CH4
  CO2(g)            1.94     -0.16   -2.09  CO2	 Pressure 140.3 atm, phi 0.619
  H2(g)           -26.81    -29.94   -3.13  H2
  H2O(g)            0.07     -0.01   -0.08  H2O	 Pressure   2.9 atm, phi 0.401
  Mtg(g)            1.73     -1.39   -3.12  Mtg	 Pressure  56.7 atm, phi 0.938
  O2(g)           -10.03    -13.23   -3.21  O2

**For a gas, SI = log10(fugacity). Fugacity = pressure * phi / 1 atm.
  For ideal gases, phi = 1.

Reaction step 6.

Using solution 1.	
Using gas phase 1.	
Using pressure 1.	
Using reaction 1.	

Reaction 1.	

	  3.600e+00 moles of the following reaction have been added:

	                 Relative
	Reactant            moles

	CO2                 -1.00000
	Mtg                  1.00000

	                 Relative
	Element             moles
	C                   -1.00000
	Mtg                  1.00000
	O                   -2.00000

-----------------------------------Gas phase-----------------------------------

Total pressure: 200.00      atmospheres          (Peng-Robinson calculation)
    Gas volume:   1.22e+00 liters
  Molar volume:   1.15e-01 liters/mole
   P * Vm / RT:  0.74998  (Compressibility Factor Z) 

                                                        Moles in gas
                                            ----------------------------------
Component         log P           P    phi     Initial       Final       Delta

CO2(g)             2.11   1.291e+02  0.622   1.041e+01   6.820e+00  -3.595e+00
H2O(g)             0.44   2.784e+00  0.424   0.000e+00   1.471e-01   1.471e-01
Mtg(g)             1.83   6.811e+01  0.926   0.000e+00   3.598e+00   3.598e+00

-----------------------------Solution composition------------------------------

	Elements           Molality       Moles

	C                 7.221e-01   3.419e-02
	Mtg               4.817e-02   2.281e-03

----------------------------Description of solution----------------------------

                                       pH  =   3.271      Charge balance
                                       pe  =   9.916      Adjusted to redox equilibrium
      Specific Conductance (µS/cm, 102°C)  = 378
                          Density (g/cm³)  =   0.96974
                               Volume (L)  =   0.05042
                        Viscosity (mPa s)  =   0.28446
                        Activity of water  =   0.988
                 Ionic strength (mol/kgw)  =   5.527e-04
                       Mass of water (kg)  =   4.735e-02
                 Total alkalinity (eq/kg)  =   1.660e-13
                       Total CO2 (mol/kg)  =   7.221e-01
                         Temperature (°C)  = 102.00
                           Pressure (atm)  = 200.00
                  Electrical balance (eq)  =  -7.863e-15
 Percent error, 100*(Cat-|An|)/(Cat+|An|)  =  -0.00
                               Iterations  =  20
                                  Total H  = 5.256550e+00
                                  Total O  = 2.696660e+00

----------------------------Distribution of species----------------------------

                                               Log       Log       Log    mole V
   Species          Molality    Activity  Molality  Activity     Gamma   cm³/mol

   H+              5.527e-04   5.364e-04    -3.257    -3.271    -0.013      0.00
   OH-             1.391e-09   1.348e-09    -8.857    -8.870    -0.014     -6.90
   H2O             5.551e+01   9.875e-01     1.744    -0.005     0.000     18.65
C(-4)         0.000e+00
   CH4             0.000e+00   0.000e+00   -90.493   -90.493     0.000     40.98
C(4)          7.221e-01
   CO2             6.467e-01   6.468e-01    -0.189    -0.189     0.000     38.66
   (CO2)2          3.743e-02   3.744e-02    -1.427    -1.427     0.000     76.48
   HCO3-           5.527e-04   5.359e-04    -3.257    -3.271    -0.013     25.03
   CO3-2           9.545e-11   8.437e-11   -10.020   -10.074    -0.054     -5.96
H(0)          2.898e-30
   H2              1.449e-30   1.449e-30   -29.839   -29.839     0.000     18.10
Mtg           4.817e-02
   Mtg             4.817e-02   4.818e-02    -1.317    -1.317     0.000     40.98
O(0)          7.296e-14
   O2              3.648e-14   3.648e-14   -13.438   -13.438     0.000     33.34

------------------------------Saturation indices-------------------------------

  Phase               SI** log IAP   log K(375 K, 200 atm)

  CH4(g)          -87.38    -90.49   -3.12  CH4
  CO2(g)            1.90     -0.19   -2.09  CO2	 Pressure 129.1 atm, phi 0.622
  H2(g)           -26.71    -29.84   -3.13  H2
  H2O(g)            0.07     -0.01   -0.08  H2O	 Pressure   2.8 atm, phi 0.424
  Mtg(g)            1.80     -1.32   -3.12  Mtg	 Pressure  68.1 atm, phi 0.926
  O2(g)           -10.23    -13.44   -3.21  O2

**For a gas, SI = log10(fugacity). Fugacity = pressure * phi / 1 atm.
  For ideal gases, phi = 1.

Reaction step 7.

Using solution 1.	
Using gas phase 1.	
Using pressure 1.	
Using reaction 1.	

Reaction 1.	

	  4.200e+00 moles of the following reaction have been added:

	                 Relative
	Reactant            moles

	CO2                 -1.00000
	Mtg                  1.00000

	                 Relative
	Element             moles
	C                   -1.00000
	Mtg                  1.00000
	O                   -2.00000

-----------------------------------Gas phase-----------------------------------

Total pressure: 200.00      atmospheres          (Peng-Robinson calculation)
    Gas volume:   1.25e+00 liters
  Molar volume:   1.18e-01 liters/mole
   P * Vm / RT:  0.76975  (Compressibility Factor Z) 

                                                        Moles in gas
                                            ----------------------------------
Component         log P           P    phi     Initial       Final       Delta

CO2(g)             2.07   1.179e+02  0.626   1.041e+01   6.223e+00  -4.192e+00
H2O(g)             0.42   2.638e+00  0.448   0.000e+00   1.393e-01   1.393e-01
Mtg(g)             1.90   7.950e+01  0.916   0.000e+00   4.197e+00   4.197e+00

-----------------------------Solution composition------------------------------

	Elements           Molality       Moles

	C                 6.570e-01   3.120e-02
	Mtg               5.563e-02   2.642e-03

----------------------------Description of solution----------------------------

                                       pH  =   3.289      Charge balance
                                       pe  =   2.150      Adjusted to redox equilibrium
      Specific Conductance (µS/cm, 102°C)  = 364
                          Density (g/cm³)  =   0.96916
                               Volume (L)  =   0.05046
                        Viscosity (mPa s)  =   0.28418
                        Activity of water  =   0.988
                 Ionic strength (mol/kgw)  =   5.294e-04
                       Mass of water (kg)  =   4.749e-02
                 Total alkalinity (eq/kg)  =   1.656e-13
                       Total CO2 (mol/kg)  =   6.570e-01
                         Temperature (°C)  = 102.00
                           Pressure (atm)  = 200.00
                  Electrical balance (eq)  =  -7.863e-15
 Percent error, 100*(Cat-|An|)/(Cat+|An|)  =  -0.00
                               Iterations  =  19
                                  Total H  = 5.272115e+00
                                  Total O  = 2.698459e+00

----------------------------Distribution of species----------------------------

                                               Log       Log       Log    mole V
   Species          Molality    Activity  Molality  Activity     Gamma   cm³/mol

   H+              5.294e-04   5.140e-04    -3.276    -3.289    -0.013      0.00
   OH-             1.452e-09   1.408e-09    -8.838    -8.851    -0.013     -6.90
   H2O             5.551e+01   9.884e-01     1.744    -0.005     0.000     18.65
C(-4)         2.822e-29
   CH4             2.822e-29   2.822e-29   -28.549   -28.549     0.000     40.98
C(4)          6.570e-01
   CO2             5.934e-01   5.935e-01    -0.227    -0.227     0.000     38.66
   (CO2)2          3.152e-02   3.152e-02    -1.501    -1.501     0.000     76.48
   HCO3-           5.294e-04   5.136e-04    -3.276    -3.289    -0.013     25.03
   CO3-2           9.521e-11   8.437e-11   -10.021   -10.074    -0.053     -5.97
H(0)          9.069e-15
   H2              4.534e-15   4.535e-15   -14.343   -14.343     0.000     18.10
Mtg           5.563e-02
   Mtg             5.563e-02   5.564e-02    -1.255    -1.255     0.000     40.98
O(0)          0.000e+00
   O2              0.000e+00   0.000e+00   -44.428   -44.428     0.000     33.34

------------------------------Saturation indices-------------------------------

  Phase               SI** log IAP   log K(375 K, 200 atm)

  CH4(g)          -25.43    -28.55   -3.12  CH4
  CO2(g)            1.87     -0.23   -2.09  CO2	 Pressure 117.9 atm, phi 0.626
  H2(g)           -11.21    -14.34   -3.13  H2
  H2O(g)            0.07     -0.01   -0.08  H2O	 Pressure   2.6 atm, phi 0.448
  Mtg(g)            1.86     -1.25   -3.12  Mtg	 Pressure  79.5 atm, phi 0.916
  O2(g)           -41.22    -44.43   -3.21  O2

**For a gas, SI = log10(fugacity). Fugacity = pressure * phi / 1 atm.
  For ideal gases, phi = 1.

Reaction step 8.

Using solution 1.	
[...]
                         Temperature (°C)  = 102.00
                           Pressure (atm)  = 493.00
                  Electrical balance (eq)  =  -7.856e-15
 Percent error, 100*(Cat-|An|)/(Cat+|An|)  =  -0.00
                               Iterations  =  21
                                  Total H  = 5.084969e+00
                                  Total O  = 2.627677e+00

----------------------------Distribution of species----------------------------

                                               Log       Log       Log    mole V
   Species          Molality    Activity  Molality  Activity     Gamma   cm³/mol

   H+              7.100e-04   6.869e-04    -3.149    -3.163    -0.014      0.00
   OH-             1.402e-09   1.354e-09    -8.853    -8.868    -0.015     -7.91
   H2O             5.551e+01   9.836e-01     1.744    -0.007     0.000     18.40
C(-4)         5.410e-23
   CH4             5.410e-23   5.411e-23   -22.267   -22.267     0.000     40.66
C(4)          9.299e-01
   CO2             8.107e-01   8.107e-01    -0.091    -0.091     0.000     37.85
   (CO2)2          5.929e-02   5.930e-02    -1.227    -1.227     0.000     74.87
   HCO3-           7.100e-04   6.862e-04    -3.149    -3.164    -0.015     26.16
   CO3-2           1.259e-10   1.099e-10    -9.900    -9.959    -0.059     -2.90
H(0)          2.896e-13
   H2              1.448e-13   1.448e-13   -12.839   -12.839     0.000     17.75
Mtg           9.111e-02
   Mtg             9.111e-02   9.112e-02    -1.040    -1.040     0.000     40.66
O(0)          0.000e+00
   O2              0.000e+00   0.000e+00   -47.567   -47.567     0.000     32.55

------------------------------Saturation indices-------------------------------

  Phase               SI** log IAP   log K(375 K, 493 atm)

  CH4(g)          -18.98    -22.27   -3.28  CH4
  CO2(g)            2.16     -0.09   -2.25  CO2	 Pressure 301.1 atm, phi 0.477
  H2(g)            -9.63    -12.84   -3.21  H2
  H2O(g)            0.15     -0.01   -0.15  H2O	 Pressure   6.0 atm, phi 0.233
  Mtg(g)            2.24     -1.04   -3.28  Mtg	 Pressure 185.9 atm, phi 0.943
  O2(g)           -44.23    -47.57   -3.34  O2

**For a gas, SI = log10(fugacity). Fugacity = pressure * phi / 1 atm.
  For ideal gases, phi = 1.

Reaction step 7.

Using solution 1.	
Using gas phase 1.	
Using pressure 1.	
Using reaction 1.	

Reaction 1.	

	  8.400e+00 moles of the following reaction have been added:

	                 Relative
	Reactant            moles

	CO2                 -1.00000
	Mtg                  1.00000

	                 Relative
	Element             moles
	C                   -1.00000
	Mtg                  1.00000
	O                   -2.00000

-----------------------------------Gas phase-----------------------------------

Total pressure: 493.00      atmospheres          (Peng-Robinson calculation)
    Gas volume:   1.15e+00 liters
  Molar volume:   6.04e-02 liters/mole
   P * Vm / RT:  0.96686  (Compressibility Factor Z) 

                                                        Moles in gas
                                            ----------------------------------
Component         log P           P    phi     Initial       Final       Delta

CO2(g)             2.43   2.705e+02  0.481   1.886e+01   1.046e+01  -8.399e+00
H2O(g)             0.73   5.430e+00  0.258   0.000e+00   2.100e-01   2.100e-01
Mtg(g)             2.34   2.171e+02  0.928   0.000e+00   8.395e+00   8.395e+00

-----------------------------Solution composition------------------------------

	Elements           Molality       Moles

	C                 8.328e-01   3.849e-02
	Mtg               1.047e-01   4.841e-03

----------------------------Description of solution----------------------------

                                       pH  =   3.184      Charge balance
                                       pe  =   2.136      Adjusted to redox equilibrium
      Specific Conductance (µS/cm, 102°C)  = 456
                          Density (g/cm³)  =   0.98215
                               Volume (L)  =   0.04886
                        Viscosity (mPa s)  =   0.29287
                        Activity of water  =   0.985
                 Ionic strength (mol/kgw)  =   6.758e-04
                       Mass of water (kg)  =   4.622e-02
                 Total alkalinity (eq/kg)  =   1.701e-13
                       Total CO2 (mol/kg)  =   8.328e-01
                         Temperature (°C)  = 102.00
                           Pressure (atm)  = 493.00
                  Electrical balance (eq)  =  -7.860e-15
 Percent error, 100*(Cat-|An|)/(Cat+|An|)  =  -0.00
                               Iterations  =  23
                                  Total H  = 5.130730e+00
                                  Total O  = 2.642348e+00

----------------------------Distribution of species----------------------------

                                               Log       Log       Log    mole V
   Species          Molality    Activity  Molality  Activity     Gamma   cm³/mol

   H+              6.758e-04   6.543e-04    -3.170    -3.184    -0.014      0.00
   OH-             1.472e-09   1.423e-09    -8.832    -8.847    -0.015     -7.92
   H2O             5.551e+01   9.849e-01     1.744    -0.007     0.000     18.40
C(-4)         2.170e-28
   CH4             2.170e-28   2.171e-28   -27.663   -27.663     0.000     40.66
C(4)          8.328e-01
   CO2             7.348e-01   7.348e-01    -0.134    -0.134     0.000     37.85
   (CO2)2          4.871e-02   4.871e-02    -1.312    -1.312     0.000     74.87
   HCO3-           6.758e-04   6.537e-04    -3.170    -3.185    -0.014     26.16
   CO3-2           1.255e-10   1.099e-10    -9.901    -9.959    -0.058     -2.91
H(0)          1.329e-14
   H2              6.647e-15   6.648e-15   -14.177   -14.177     0.000     17.75
Mtg           1.047e-01
   Mtg             1.047e-01   1.048e-01    -0.980    -0.980     0.000     40.66
O(0)          0.000e+00
   O2              0.000e+00   0.000e+00   -44.890   -44.890     0.000     32.55

------------------------------Saturation indices-------------------------------

  Phase               SI** log IAP   log K(375 K, 493 atm)

  CH4(g)          -24.38    -27.66   -3.28  CH4
  CO2(g)            2.11     -0.13   -2.25  CO2	 Pressure 270.5 atm, phi 0.481
  H2(g)           -10.97    -14.18   -3.21  H2
  H2O(g)            0.15     -0.01   -0.15  H2O	 Pressure   5.4 atm, phi 0.258
  Mtg(g)            2.30     -0.98   -3.28  Mtg	 Pressure 217.1 atm, phi 0.928
  O2(g)           -41.55    -44.89   -3.34  O2

**For a gas, SI = log10(fugacity). Fugacity = pressure * phi / 1 atm.
  For ideal gases, phi = 1.

Reaction step 8.

Using solution 1.	
Using gas phase 1.	
Using pressure 1.	
Using reaction 1.	

Reaction 1.	

	  9.600e+00 moles of the following reaction have been added:

	                 Relative
	Reactant            moles

	CO2                 -1.00000
	Mtg                  1.00000

	                 Relative
	Element             moles
	C                   -1.00000
	Mtg                  1.00000
	O                   -2.00000

-----------------------------------Gas phase-----------------------------------

Total pressure: 493.00      atmospheres          (Peng-Robinson calculation)
    Gas volume:   1.17e+00 liters
  Molar volume:   6.15e-02 liters/mole
   P * Vm / RT:  0.98520  (Compressibility Factor Z) 

                                                        Moles in gas
                                            ----------------------------------
Component         log P           P    phi     Initial       Final       Delta

CO2(g)             2.38   2.397e+02  0.486   1.886e+01   9.262e+00  -9.595e+00
H2O(g)             0.69   4.914e+00  0.286   0.000e+00   1.898e-01   1.898e-01
Mtg(g)             2.40   2.483e+02  0.916   0.000e+00   9.594e+00   9.594e+00

-----------------------------Solution composition------------------------------

	Elements           Molality       Moles

	C                 7.367e-01   3.432e-02
	Mtg               1.182e-01   5.507e-03

----------------------------Description of solution----------------------------

                                       pH  =   3.208      Charge balance
                                       pe  =  10.142      Adjusted to redox equilibrium
      Specific Conductance (µS/cm, 102°C)  = 434
                          Density (g/cm³)  =   0.98122
                               Volume (L)  =   0.04910
                        Viscosity (mPa s)  =   0.29243
                        Activity of water  =   0.986
                 Ionic strength (mol/kgw)  =   6.394e-04
                       Mass of water (kg)  =   4.658e-02
                 Total alkalinity (eq/kg)  =   1.689e-13
                       Total CO2 (mol/kg)  =   7.367e-01
                         Temperature (°C)  = 102.00
                           Pressure (atm)  = 493.00
                  Electrical balance (eq)  =  -7.868e-15
 Percent error, 100*(Cat-|An|)/(Cat+|An|)  =  -0.00
                               Iterations  =  33
                                  Total H  = 5.170998e+00
                                  Total O  = 2.654131e+00

----------------------------Distribution of species----------------------------

                                               Log       Log       Log    mole V
   Species          Molality    Activity  Molality  Activity     Gamma   cm³/mol

   H+              6.394e-04   6.196e-04    -3.194    -3.208    -0.014      0.00
   OH-             1.555e-09   1.505e-09    -8.808    -8.822    -0.014     -7.92
   H2O             5.551e+01   9.861e-01     1.744    -0.006     0.000     18.40
C(-4)         0.000e+00
   CH4             0.000e+00   0.000e+00   -91.951   -91.951     0.000     40.66
C(4)          7.367e-01
   CO2             6.580e-01   6.580e-01    -0.182    -0.182     0.000     37.85
   (CO2)2          3.906e-02   3.906e-02    -1.408    -1.408     0.000     74.87
   HCO3-           6.394e-04   6.190e-04    -3.194    -3.208    -0.014     26.16
   CO3-2           1.251e-10   1.099e-10    -9.903    -9.959    -0.056     -2.91
H(0)          1.159e-30
   H2              5.794e-31   5.794e-31   -30.237   -30.237     0.000     17.75
Mtg           1.182e-01
   Mtg             1.182e-01   1.182e-01    -0.927    -0.927     0.000     40.66
O(0)          3.402e-13
   O2              1.701e-13   1.701e-13   -12.769   -12.769     0.000     32.55

------------------------------Saturation indices-------------------------------

  Phase               SI** log IAP   log K(375 K, 493 atm)

  CH4(g)          -88.67    -91.95   -3.28  CH4
  CO2(g)            2.07     -0.18   -2.25  CO2	 Pressure 239.7 atm, phi 0.486
  H2(g)           -27.03    -30.24   -3.21  H2
  H2O(g)            0.15     -0.01   -0.15  H2O	 Pressure   4.9 atm, phi 0.286
  Mtg(g)            2.36     -0.93   -3.28  Mtg	 Pressure 248.3 atm, phi 0.916
  O2(g)            -9.43    -12.77   -3.34  O2

**For a gas, SI = log10(fugacity). Fugacity = pressure * phi / 1 atm.
  For ideal gases, phi = 1.

Reaction step 9.

Using solution 1.	
Using gas phase 1.	
Using pressure 1.	
Using reaction 1.	

Reaction 1.	

	  1.080e+01 moles of the following reaction have been added:

	                 Relative
	Reactant            moles

	CO2                 -1.00000
	Mtg                  1.00000

	                 Relative
	Element             moles
	C                   -1.00000
	Mtg                  1.00000
	O                   -2.00000

-----------------------------------Gas phase-----------------------------------

Total pressure: 493.00      atmospheres          (Peng-Robinson calculation)
    Gas volume:   1.19e+00 liters
  Molar volume:   6.26e-02 liters/mole
   P * Vm / RT:  1.00330  (Compressibility Factor Z) 

                                                        Moles in gas
                                            ----------------------------------
Component         log P           P    phi     Initial       Final       Delta

CO2(g)             2.32   2.089e+02  0.492   1.886e+01   8.066e+00  -1.079e+01
H2O(g)             0.65   4.457e+00  0.315   0.000e+00   1.721e-01   1.721e-01
Mtg(g)             2.45   2.796e+02  0.905   0.000e+00   1.079e+01   1.079e+01

-----------------------------Solution composition------------------------------

	Elements           Molality       Moles

	C                 6.412e-01   3.007e-02
	Mtg               1.316e-01   6.172e-03

----------------------------Description of solution----------------------------

                                       pH  =   3.235      Charge balance
                                       pe  =   1.746      Adjusted to redox equilibrium
      Specific Conductance (µS/cm, 102°C)  = 410
                          Density (g/cm³)  =   0.98028
                               Volume (L)  =   0.04930
                        Viscosity (mPa s)  =   0.29200
                        Activity of water  =   0.987
                 Ionic strength (mol/kgw)  =   6.001e-04
                       Mass of water (kg)  =   4.690e-02
                 Total alkalinity (eq/kg)  =   1.675e-13
                       Total CO2 (mol/kg)  =   6.412e-01
                         Temperature (°C)  = 102.00
                           Pressure (atm)  = 493.00
                  Electrical balance (eq)  =  -7.855e-15
 Percent error, 100*(Cat-|An|)/(Cat+|An|)  =  -0.00
                               Iterations  =  20
                                  Total H  = 5.206558e+00
                                  Total O  = 2.663425e+00

----------------------------Distribution of species----------------------------

                                               Log       Log       Log    mole V
   Species          Molality    Activity  Molality  Activity     Gamma   cm³/mol

   H+              6.001e-04   5.820e-04    -3.222    -3.235    -0.013      0.00
   OH-             1.656e-09   1.604e-09    -8.781    -8.795    -0.014     -7.92
   H2O             5.551e+01   9.874e-01     1.744    -0.006     0.000     18.40
C(-4)         8.698e-26
   CH4             8.698e-26   8.699e-26   -25.061   -25.061     0.000     40.66
C(4)          6.412e-01
   CO2             5.799e-01   5.800e-01    -0.237    -0.237     0.000     37.85
   (CO2)2          3.034e-02   3.035e-02    -1.518    -1.518     0.000     74.87
   HCO3-           6.001e-04   5.815e-04    -3.222    -3.235    -0.014     26.16
   CO3-2           1.246e-10   1.099e-10    -9.904    -9.959    -0.055     -2.92
H(0)          6.318e-14
   H2              3.159e-14   3.160e-14   -13.500   -13.500     0.000     17.75
Mtg           1.316e-01
   Mtg             1.316e-01   1.316e-01    -0.881    -0.881     0.000     40.66
O(0)          0.000e+00
   O2              0.000e+00   0.000e+00   -46.241   -46.241     0.000     32.55

------------------------------Saturation indices-------------------------------

  Phase               SI** log IAP   log K(375 K, 493 atm)

  CH4(g)          -21.78    -25.06   -3.28  CH4
  CO2(g)            2.01     -0.24   -2.25  CO2	 Pressure 208.9 atm, phi 0.492
  H2(g)           -10.29    -13.50   -3.21  H2
  H2O(g)            0.15     -0.01   -0.15  H2O	 Pressure   4.5 atm, phi 0.315
  Mtg(g)            2.40     -0.88   -3.28  Mtg	 Pressure 279.6 atm, phi 0.905
  O2(g)           -42.90    -46.24   -3.34  O2

**For a gas, SI = log10(fugacity). Fugacity = pressure * phi / 1 atm.
  For ideal gases, phi = 1.

Reaction step 10.

Using solution 1.	
Using gas phase 1.	
Using pressure 1.	
Using reaction 1.	

Reaction 1.	

	  1.200e+01 moles of the following reaction have been added:

	                 Relative
	Reactant            moles

	CO2                 -1.00000
	Mtg                  1.00000

	                 Relative
	Element             moles
	C                   -1.00000
	Mtg                  1.00000
	O                   -2.00000

-----------------------------------Gas phase-----------------------------------

Total pressure: 493.00      atmospheres          (Peng-Robinson calculation)
    Gas volume:   1.21e+00 liters
  Molar volume:   6.38e-02 liters/mole
   P * Vm / RT:  1.02114  (Compressibility Factor Z) 

                                                        Moles in gas
                                            ----------------------------------
Component         log P           P    phi     Initial       Final       Delta

CO2(g)             2.25   1.781e+02  0.498   1.886e+01   6.870e+00  -1.199e+01
H2O(g)             0.61   4.051e+00  0.347   0.000e+00   1.563e-01   1.563e-01
Mtg(g)             2.49   3.109e+02  0.897   0.000e+00   1.199e+01   1.199e+01

-----------------------------Solution composition------------------------------

	Elements           Molality       Moles

	C                 5.461e-01   2.577e-02
	Mtg               1.450e-01   6.839e-03

----------------------------Description of solution----------------------------

                                       pH  =   3.267      Charge balance
                                       pe  =   2.556      Adjusted to redox equilibrium
      Specific Conductance (µS/cm, 102°C)  = 383
                          Density (g/cm³)  =   0.97934
                               Volume (L)  =   0.04945
                        Viscosity (mPa s)  =   0.29157
                        Activity of water  =   0.989
                 Ionic strength (mol/kgw)  =   5.572e-04
                       Mass of water (kg)  =   4.718e-02
                 Total alkalinity (eq/kg)  =   1.666e-13
                       Total CO2 (mol/kg)  =   5.461e-01
                         Temperature (°C)  = 102.00
                           Pressure (atm)  = 493.00
                  Electrical balance (eq)  =  -7.859e-15
 Percent error, 100*(Cat-|An|)/(Cat+|An|)  =  -0.00
                               Iterations  =  20
                                  Total H  = 5.238067e+00
                                  Total O  = 2.670569e+00

----------------------------Distribution of species----------------------------

                                               Log       Log       Log    mole V
   Species          Molality    Activity  Molality  Activity     Gamma   cm³/mol

   H+              5.572e-04   5.410e-04    -3.254    -3.267    -0.013      0.00
   OH-             1.782e-09   1.728e-09    -8.749    -8.762    -0.013     -7.92
   H2O             5.551e+01   9.886e-01     1.744    -0.005     0.000     18.40
C(-4)         1.387e-32
   CH4             1.387e-32   1.387e-32   -31.858   -31.858     0.000     40.66
C(4)          5.461e-01
   CO2             5.004e-01   5.004e-01    -0.301    -0.301     0.000     37.85
   (CO2)2          2.259e-02   2.259e-02    -1.646    -1.646     0.000     74.87
   HCO3-           5.572e-04   5.405e-04    -3.254    -3.267    -0.013     26.16
   CO3-2           1.241e-10   1.099e-10    -9.906    -9.959    -0.053     -2.93
H(0)          1.311e-15
   H2              6.554e-16   6.555e-16   -15.183   -15.183     0.000     17.75
Mtg           1.450e-01
   Mtg             1.450e-01   1.450e-01    -0.839    -0.839     0.000     40.66
O(0)          0.000e+00
   O2              0.000e+00   0.000e+00   -42.874   -42.874     0.000     32.55

------------------------------Saturation indices-------------------------------

  Phase               SI** log IAP   log K(375 K, 493 atm)

  CH4(g)          -28.57    -31.86   -3.28  CH4
  CO2(g)            1.95     -0.30   -2.25  CO2	 Pressure 178.1 atm, phi 0.498
  H2(g)           -11.98    -15.18   -3.21  H2
  H2O(g)            0.15     -0.00   -0.15  H2O	 Pressure   4.1 atm, phi 0.347
  Mtg(g)            2.45     -0.84   -3.28  Mtg	 Pressure 310.9 atm, phi 0.897
  O2(g)           -39.53    -42.87   -3.34  O2

**For a gas, SI = log10(fugacity). Fugacity = pressure * phi / 1 atm.
  For ideal gases, phi = 1.

------------------
End of simulation.
------------------

------------------------------------
Reading input data for simulation 6.
------------------------------------

