WARNING: Database file from DATABASE keyword is used; command line argument ignored.
   Input file: TonyLitharge2a
  Output file: TonyLitharge2a.out
Database file: ../database/phreeqc.dat

------------------
Reading data base.
------------------

	SOLUTION_MASTER_SPECIES
	SOLUTION_SPECIES
	PHASES
	GAS_BINARY_PARAMETERS
	EXCHANGE_MASTER_SPECIES
	EXCHANGE_SPECIES
	SURFACE_MASTER_SPECIES
	SURFACE_SPECIES
	MEAN_GAMMAS
	RATES
	END
------------------------------------
Reading input data for simulation 1.
------------------------------------

	DATABASE ../database/phreeqc.dat
	SELECTED_OUTPUT 101
	    file                 TonyLitharge2a_101.sel
	USER_PUNCH 101
	    headings Mu SC
	    start
	10 PUNCH STR_F$(MU, 20, 12)
	20 PUNCH STR_F$(SC, 20, 10)
	    end
	PRINT
	 reset false
	SURFACE_MASTER_SPECIES
	Sura Sura-
	SURFACE_SPECIES
	Sura- = Sura-
	RATES
	Sum_solid
	10 eq = equi("Calcite") + equi("Hydrocerussite") + equi("Litharge")
	20 rate = m - eq
	30 save rate * time
	40 hc = phase_vm("HydroCerussite") : cc = phase_vm("Calcite") : li = phase_vm("Litharge")
	50 vs = hc * equi("HydroCerussite") + cc * equi("Calcite") + li * equi("Litharge")
	60 org_por = 1e-3 : vtot = tot("water") * 100 / org_por
	70 change_por(org_por - vs / vtot, cell_no)
	SOLUTION 0-10
	water 1e-4 # Make the pore negative with surface to block HCO3- and CO3-2 diffusion to the Pb pipe
	Ca 1 calcite
	C(4) 1
	Cl 1
	pH 8 charge
	O(0) 1 O2(g) -0.7 # 20 mg/kgw
	END
-------------------------------------------
Beginning of initial solution calculations.
-------------------------------------------

Initial solution 0.	

-----------------------------Solution composition------------------------------

	Elements           Molality       Moles

	C(4)              1.000e-03   1.000e-07
	Ca                9.968e-04   9.968e-08  Equilibrium with Calcite
	Cl                1.000e-03   1.000e-07
	O(0)              5.108e-04   5.108e-08  Equilibrium with O2(g)

----------------------------Description of solution----------------------------

                                       pH  =   8.026      Charge balance
                                       pe  =   4.000    
      Specific Conductance (µS/cm,  25°C)  = 223
                          Density (g/cm³)  =   0.99715
                               Volume (L)  =   0.00010
                        Viscosity (mPa s)  =   0.89113
                        Activity of water  =   1.000
                 Ionic strength (mol/kgw)  =   2.978e-03
                       Mass of water (kg)  =   1.000e-04
                 Total alkalinity (eq/kg)  =   9.935e-04
                       Total CO2 (mol/kg)  =   1.000e-03
                         Temperature (°C)  =  25.00
                  Electrical balance (eq)  =  -2.564e-20
 Percent error, 100*(Cat-|An|)/(Cat+|An|)  =  -0.00
                               Iterations  =   9
                                  Total H  = 1.110134e-02
                                  Total O  = 5.550971e-03

---------------------------------Redox couples---------------------------------

	Redox couple             pe  Eh (volts)

	O(-2)/O(0)          12.5918      0.7449

----------------------------Distribution of species----------------------------

                                               Log       Log       Log    mole V
   Species          Molality    Activity  Molality  Activity     Gamma   cm³/mol

   OH-             1.141e-06   1.074e-06    -5.943    -5.969    -0.026     -4.08
   H+              9.960e-09   9.425e-09    -8.002    -8.026    -0.024      0.00
   H2O             5.551e+01   9.999e-01     1.744    -0.000     0.000     18.07
C(4)          1.000e-03
   HCO3-           9.689e-04   9.140e-04    -3.014    -3.039    -0.025     24.60
   CO2             1.936e-05   1.937e-05    -4.713    -4.713     0.000     34.79
   CaCO3           5.985e-06   5.989e-06    -5.223    -5.223     0.000    -14.60
   CO3-2           5.745e-06   4.548e-06    -5.241    -5.342    -0.102     -4.57
   CaHCO3+         6.656e-11   6.282e-11   -10.177   -10.202    -0.025      9.69
   (CO2)2          6.096e-12   6.099e-12   -11.215   -11.215     0.000     68.75
Ca            9.968e-04
   Ca+2            9.908e-04   7.839e-04    -3.004    -3.106    -0.102    -18.07
   CaCO3           5.985e-06   5.989e-06    -5.223    -5.223     0.000    -14.60
   CaOH+           1.465e-08   1.380e-08    -7.834    -7.860    -0.026     (0)  
   CaHCO3+         6.656e-11   6.282e-11   -10.177   -10.202    -0.025      9.69
Cl            1.000e-03
   Cl-             1.000e-03   9.417e-04    -3.000    -3.026    -0.026     18.10
   HCl             3.049e-12   3.058e-12   -11.516   -11.515     0.001     20.36
H(0)          1.257e-27
   H2              6.285e-28   6.289e-28   -27.202   -27.201     0.000     14.99
O(0)          5.108e-04
   O2              2.554e-04   2.556e-04    -3.593    -3.592     0.000     30.40

------------------------------Saturation indices-------------------------------

  Phase               SI** log IAP   log K(298 K,   1 atm)

  Aragonite        -0.11     -8.45   -8.34  CaCO3
  Calcite           0.00     -8.45   -8.45  CaCO3
  CO2(g)           -3.24     -4.71   -1.47  CO2
  H2(g)           -24.10    -27.20   -3.10  H2
  H2O(g)           -1.50     -0.00    1.50  H2O
  O2(g)            -0.70     -3.59   -2.89  O2	 Pressure   0.2 atm, phi 1.000

**For a gas, SI = log10(fugacity). Fugacity = pressure * phi / 1 atm.
  For ideal gases, phi = 1.

------------------
End of simulation.
------------------

------------------------------------
Reading input data for simulation 2.
------------------------------------

	EQUILIBRIUM_PHASES 8-10
	  Pb 0 10
	  Litharge 0 0e-3
	  Cerussite 0 0
	  Hydrocerussite 0 0
	  Calcite 0 0
	EQUILIBRIUM_PHASES 1-7
	  Litharge 0 0
	  Hydrocerussite 0 0
	  Cerussite 0 0
	  Calcite  0 0
	SURFACE 1-8
	Sura 1e-3 100 10
	 donnan 9e-10
	 equilibrate 1
	END
------------------------------------------------------
Beginning of initial surface-composition calculations.
------------------------------------------------------

Surface 1.	

Diffuse Double Layer Surface-Complexation Model

Sura          
	  1.167e-12  Surface + diffuse layer charge, eq
	 -1.000e-03  Surface charge, eq
	 -9.649e-02  sigma, C/m²
	 -1.751e-01  psi, V
	  6.814e+00  -F*psi/RT
	  9.106e+02  exp(-F*psi/RT)
	  1.000e+02  specific area, m²/g
	  1.000e+03  m² for   1.000e+01 g

	Water in diffuse layer: 9.000e-04 kg, 100.0% of total DDL-water.
		      viscosity: 0.00000 mPa s for DDL water.

	Total moles in diffuse layer (excluding water), Donnan calculation.
	Donnan Layer potential, psi_DL = -8.130e-02 V.
	Boltzmann factor, exp(-psi_DL * F / RT) = 2.368e+01 (= c_DL / c_free if z is +1).

	Element       	     Moles
	C             	  5.9645e-08
	Ca            	  5.0004e-04
	Cl            	  3.8005e-08
	H             	  3.7393e-08
	O             	  6.2163e-07

Sura          
	  1.000e-03  moles
	                                   Mole                     Log
	Species               Moles    Fraction    Molality    Molality

	Sura-             1.000e-03       1.000   1.000e+01       1.000

------------------
End of simulation.
------------------

------------------------------------
Reading input data for simulation 3.
------------------------------------

	TRANSPORT
	cells 10
	lengths 0.5e-3
	timest 1 day 5
	shifts 2 0
	multi_d true 0.5e-9 0.3 1e-6 1.0 false
	porosities 4*0.001
	boundary_conditions constant closed
	punch_frequency 1
	USER_GRAPH 
WARNING: Cell-lengths were read for 1 cells. Last value is used till cell 10.
WARNING: No dispersivities were read; disp = 0 assumed.
WARNING: Porosities were read for 4 cells. Last value is used till cell 12.
	-axis_titles "distance / mm" "mol" pH
	-conn false
	-headings x Litha H-Cer Cc pH..+..1day
	-plot_concentration_vs dist
	-axis_scale x_axis 0 4
	10 graph_x dist * 1e3
	12 if cell_no = 4 then li = 0e-3 else li = 0
	20 graph_y equi("Litharge") - li, equi("Hydrocerussite"), equi("Calcite")
	30 graph_sy -la("H+")
	END
------------------------------------
Beginning of transport calculations.
------------------------------------

-------------------------------
Equilibrating initial solutions
-------------------------------

Using solution 0.	

-----------------------------Solution composition------------------------------

	Elements           Molality       Moles

	C                 1.000e-03   1.000e-07
	Ca                9.968e-04   9.968e-08
	Cl                1.000e-03   1.000e-07

----------------------------Description of solution----------------------------

                                       pH  =   8.026      Charge balance
                                       pe  =  12.592      Adjusted to redox equilibrium
      Specific Conductance (µS/cm,  25°C)  = 223
                          Density (g/cm³)  =   0.99715
                               Volume (L)  =   0.00010
                        Viscosity (mPa s)  =   0.89113
                        Activity of water  =   1.000
                 Ionic strength (mol/kgw)  =   2.978e-03
                       Mass of water (kg)  =   1.000e-04
                 Total alkalinity (eq/kg)  =   9.935e-04
                       Total CO2 (mol/kg)  =   1.000e-03
                         Temperature (°C)  =  25.00
                  Electrical balance (eq)  =  -2.567e-20
 Percent error, 100*(Cat-|An|)/(Cat+|An|)  =  -0.00
                               Iterations  =  15
                                  Total H  = 1.110134e-02
                                  Total O  = 5.550971e-03

----------------------------Distribution of species----------------------------

                                               Log       Log       Log    mole V
   Species          Molality    Activity  Molality  Activity     Gamma   cm³/mol

   OH-             1.141e-06   1.074e-06    -5.943    -5.969    -0.026     -4.08
   H+              9.960e-09   9.425e-09    -8.002    -8.026    -0.024      0.00
   H2O             5.551e+01   9.999e-01     1.744    -0.000     0.000     18.07
C(-4)         0.000e+00
   CH4             0.000e+00   0.000e+00  -145.263  -145.263     0.000     35.46
C(4)          1.000e-03
   HCO3-           9.689e-04   9.140e-04    -3.014    -3.039    -0.025     24.60
   CO2             1.936e-05   1.937e-05    -4.713    -4.713     0.000     34.79
   CaCO3           5.985e-06   5.989e-06    -5.223    -5.223     0.000    -14.60
   CO3-2           5.745e-06   4.548e-06    -5.241    -5.342    -0.102     -4.57
   CaHCO3+         6.656e-11   6.282e-11   -10.177   -10.202    -0.025      9.69
   (CO2)2          6.096e-12   6.099e-12   -11.215   -11.215     0.000     68.75
Ca            9.968e-04
   Ca+2            9.908e-04   7.839e-04    -3.004    -3.106    -0.102    -18.07
   CaCO3           5.985e-06   5.989e-06    -5.223    -5.223     0.000    -14.60
   CaOH+           1.465e-08   1.380e-08    -7.834    -7.860    -0.026     (0)  
   CaHCO3+         6.656e-11   6.282e-11   -10.177   -10.202    -0.025      9.69
Cl            1.000e-03
   Cl-             1.000e-03   9.417e-04    -3.000    -3.026    -0.026     18.10
   HCl             3.049e-12   3.058e-12   -11.516   -11.515     0.001     20.36
H(0)          0.000e+00
   H2              0.000e+00   0.000e+00   -44.385   -44.385     0.000     14.99
O(0)          5.108e-04
   O2              2.554e-04   2.556e-04    -3.593    -3.592     0.000     30.40

------------------------------Saturation indices-------------------------------

  Phase               SI** log IAP   log K(298 K,   1 atm)

  Aragonite        -0.11     -8.45   -8.34  CaCO3
  Calcite           0.00     -8.45   -8.45  CaCO3
  CH4(g)         -142.46   -145.26   -2.80  CH4
  CO2(g)           -3.24     -4.71   -1.47  CO2
  H2(g)           -41.29    -44.39   -3.10  H2
  H2O(g)           -1.50     -0.00    1.50  H2O
  O2(g)            -0.70     -3.59   -2.89  O2

**For a gas, SI = log10(fugacity). Fugacity = pressure * phi / 1 atm.
  For ideal gases, phi = 1.

Using solution 1.	
Using surface 1.	
Using pure phase assemblage 1.	

-------------------------------Phase assemblage--------------------------------

                                                      Moles in assemblage
Phase               SI  log IAP  log K(T, P)   Initial       Final       Delta

Calcite           0.00    -8.45     -8.45    0.000e+00   4.109e-14   4.109e-14
Cerussite            Element not present.    0.000e+00               0.000e+00
Hydrocerussite       Element not present.    0.000e+00               0.000e+00
Litharge             Element not present.    0.000e+00               0.000e+00

------------------------------Surface composition------------------------------

Diffuse Double Layer Surface-Complexation Model

Sura          
	  1.465e-13  Surface + diffuse layer charge, eq
	 -1.000e-03  Surface charge, eq
	 -9.649e-02  sigma, C/m²
	 -1.751e-01  psi, V
	  6.814e+00  -F*psi/RT
	  9.106e+02  exp(-F*psi/RT)
	  1.000e+02  specific area, m²/g
	  1.000e+03  m² for   1.000e+01 g

	Water in diffuse layer: 9.000e-04 kg, 100.0% of total DDL-water.
		      viscosity: 0.00000 mPa s for DDL water.

	Total moles in diffuse layer (excluding water), Donnan calculation.
	Donnan Layer potential, psi_DL = -8.130e-02 V.
	Boltzmann factor, exp(-psi_DL * F / RT) = 2.368e+01 (= c_DL / c_free if z is +1).

	Element       	     Moles
	C             	  5.9645e-08
	Ca            	  5.0004e-04
	Cl            	  3.8006e-08
	H             	  3.7393e-08
	O             	  6.2163e-07

Sura          
	  1.000e-03  moles
	                                   Mole                     Log
	Species               Moles    Fraction    Molality    Molality

	Sura-             1.000e-03       1.000   1.000e+01       1.000

-----------------------------Solution composition------------------------------

	Elements           Molality       Moles

	C                 1.000e-03   1.000e-07
	Ca                9.968e-04   9.968e-08
	Cl                1.000e-03   1.000e-07

----------------------------Description of solution----------------------------

                                       pH  =   8.026      Charge balance
                                       pe  =  12.592      Adjusted to redox equilibrium
      Specific Conductance (µS/cm,  25°C)  = 223
                          Density (g/cm³)  =   0.99715
                               Volume (L)  =   0.00010
                        Viscosity (mPa s)  =   0.89113
                        Activity of water  =   1.000
                 Ionic strength (mol/kgw)  =   2.978e-03
                       Mass of water (kg)  =   1.000e-04
                 Total alkalinity (eq/kg)  =   9.935e-04
                       Total CO2 (mol/kg)  =   1.000e-03
                         Temperature (°C)  =  25.00
                  Electrical balance (eq)  =   1.167e-12
 Percent error, 100*(Cat-|An|)/(Cat+|An|)  =   0.00
                               Iterations  =   1 (34 overall)
                                  Total H  = 1.110134e-02
                                  Total O  = 5.550971e-03

----------------------------Distribution of species----------------------------

                                               Log       Log       Log    mole V
   Species          Molality    Activity  Molality  Activity     Gamma   cm³/mol

   OH-             1.141e-06   1.074e-06    -5.943    -5.969    -0.026     -4.08
   H+              9.960e-09   9.425e-09    -8.002    -8.026    -0.024      0.00
   H2O             5.551e+01   9.999e-01     1.744    -0.000     0.000     18.07
C(-4)         0.000e+00
   CH4             0.000e+00   0.000e+00  -145.263  -145.263     0.000     35.46
C(4)          1.000e-03
   HCO3-           9.689e-04   9.140e-04    -3.014    -3.039    -0.025     24.60
   CO2             1.936e-05   1.937e-05    -4.713    -4.713     0.000     34.79
   CaCO3           5.985e-06   5.989e-06    -5.223    -5.223     0.000    -14.60
   CO3-2           5.745e-06   4.548e-06    -5.241    -5.342    -0.102     -4.57
   CaHCO3+         6.656e-11   6.282e-11   -10.177   -10.202    -0.025      9.69
   (CO2)2          6.096e-12   6.099e-12   -11.215   -11.215     0.000     68.75
Ca            9.968e-04
   Ca+2            9.908e-04   7.839e-04    -3.004    -3.106    -0.102    -18.07
   CaCO3           5.985e-06   5.989e-06    -5.223    -5.223     0.000    -14.60
   CaOH+           1.465e-08   1.380e-08    -7.834    -7.860    -0.026     (0)  
   CaHCO3+         6.656e-11   6.282e-11   -10.177   -10.202    -0.025      9.69
Cl            1.000e-03
   Cl-             1.000e-03   9.417e-04    -3.000    -3.026    -0.026     18.10
   HCl             3.049e-12   3.058e-12   -11.516   -11.515     0.001     20.36
H(0)          0.000e+00
   H2              0.000e+00   0.000e+00   -44.385   -44.385     0.000     14.99
O(0)          5.108e-04
   O2              2.554e-04   2.556e-04    -3.593    -3.592     0.000     30.40

------------------------------Saturation indices-------------------------------

  Phase               SI** log IAP   log K(298 K,   1 atm)

  Aragonite        -0.11     -8.45   -8.34  CaCO3
  Calcite           0.00     -8.45   -8.45  CaCO3
  CH4(g)         -142.46   -145.26   -2.80  CH4
  CO2(g)           -3.24     -4.71   -1.47  CO2
  H2(g)           -41.29    -44.39   -3.10  H2
  H2O(g)           -1.50     -0.00    1.50  H2O
  O2(g)            -0.70     -3.59   -2.89  O2

**For a gas, SI = log10(fugacity). Fugacity = pressure * phi / 1 atm.
  For ideal gases, phi = 1.

Using solution 2.	
Using surface 2.	
Using pure phase assemblage 2.	

-------------------------------Phase assemblage--------------------------------

                                                      Moles in assemblage
Phase               SI  log IAP  log K(T, P)   Initial       Final       Delta

Calcite           0.00    -8.45     -8.45    0.000e+00   4.109e-14   4.109e-14
Cerussite            Element not present.    0.000e+00               0.000e+00
Hydrocerussite       Element not present.    0.000e+00               0.000e+00
Litharge             Element not present.    0.000e+00               0.000e+00

------------------------------Surface composition------------------------------

Diffuse Double Layer Surface-Complexation Model

Sura          
	  1.465e-13  Surface + diffuse layer charge, eq
	 -1.000e-03  Surface charge, eq
	 -9.649e-02  sigma, C/m²
	 -1.751e-01  psi, V
	  6.814e+00  -F*psi/RT
	  9.106e+02  exp(-F*psi/RT)
	  1.000e+02  specific area, m²/g
	  1.000e+03  m² for   1.000e+01 g

	Water in diffuse layer: 9.000e-04 kg, 100.0% of total DDL-water.
		      viscosity: 0.00000 mPa s for DDL water.

	Total moles in diffuse layer (excluding water), Donnan calculation.
	Donnan Layer potential, psi_DL = -8.130e-02 V.
	Boltzmann factor, exp(-psi_DL * F / RT) = 2.368e+01 (= c_DL / c_free if z is +1).

	Element       	     Moles
	C             	  5.9645e-08
	Ca            	  5.0004e-04
	Cl            	  3.8006e-08
	H             	  3.7393e-08
	O             	  6.2163e-07

Sura          
	  1.000e-03  moles
	                                   Mole                     Log
	Species               Moles    Fraction    Molality    Molality

	Sura-             1.000e-03       1.000   1.000e+01       1.000

-----------------------------Solution composition------------------------------

	Elements           Molality       Moles

	C                 1.000e-03   1.000e-07
	Ca                9.968e-04   9.968e-08
	Cl                1.000e-03   1.000e-07

----------------------------Description of solution----------------------------

                                       pH  =   8.026      Charge balance
                                       pe  =  12.592      Adjusted to redox equilibrium
      Specific Conductance (µS/cm,  25°C)  = 223
                          Density (g/cm³)  =   0.99715
                               Volume (L)  =   0.00010
                        Viscosity (mPa s)  =   0.89113
                        Activity of water  =   1.000
                 Ionic strength (mol/kgw)  =   2.978e-03
                       Mass of water (kg)  =   1.000e-04
                 Total alkalinity (eq/kg)  =   9.935e-04
                       Total CO2 (mol/kg)  =   1.000e-03
                         Temperature (°C)  =  25.00
                  Electrical balance (eq)  =   1.167e-12
 Percent error, 100*(Cat-|An|)/(Cat+|An|)  =   0.00
                               Iterations  =   1 (53 overall)
                                  Total H  = 1.110134e-02
                                  Total O  = 5.550971e-03

----------------------------Distribution of species----------------------------

                                               Log       Log       Log    mole V
   Species          Molality    Activity  Molality  Activity     Gamma   cm³/mol

   OH-             1.141e-06   1.074e-06    -5.943    -5.969    -0.026     -4.08
   H+              9.960e-09   9.425e-09    -8.002    -8.026    -0.024      0.00
   H2O             5.551e+01   9.999e-01     1.744    -0.000     0.000     18.07
C(-4)         0.000e+00
   CH4             0.000e+00   0.000e+00  -145.263  -145.263     0.000     35.46
C(4)          1.000e-03
   HCO3-           9.689e-04   9.140e-04    -3.014    -3.039    -0.025     24.60
   CO2             1.936e-05   1.937e-05    -4.713    -4.713     0.000     34.79
   CaCO3           5.985e-06   5.989e-06    -5.223    -5.223     0.000    -14.60
   CO3-2           5.745e-06   4.548e-06    -5.241    -5.342    -0.102     -4.57
   CaHCO3+         6.656e-11   6.282e-11   -10.177   -10.202    -0.025      9.69
   (CO2)2          6.096e-12   6.099e-12   -11.215   -11.215     0.000     68.75
Ca            9.968e-04
   Ca+2            9.908e-04   7.839e-04    -3.004    -3.106    -0.102    -18.07
   CaCO3           5.985e-06   5.989e-06    -5.223    -5.223     0.000    -14.60
   CaOH+           1.465e-08   1.380e-08    -7.834    -7.860    -0.026     (0)  
   CaHCO3+         6.656e-11   6.282e-11   -10.177   -10.202    -0.025      9.69
Cl            1.000e-03
   Cl-             1.000e-03   9.417e-04    -3.000    -3.026    -0.026     18.10
   HCl             3.049e-12   3.058e-12   -11.516   -11.515     0.001     20.36
H(0)          0.000e+00
   H2              0.000e+00   0.000e+00   -44.385   -44.385     0.000     14.99
O(0)          5.108e-04
   O2              2.554e-04   2.556e-04    -3.593    -3.592     0.000     30.40

------------------------------Saturation indices-------------------------------

  Phase               SI** log IAP   log K(298 K,   1 atm)

  Aragonite        -0.11     -8.45   -8.34  CaCO3
  Calcite           0.00     -8.45   -8.45  CaCO3
  CH4(g)         -142.46   -145.26   -2.80  CH4
  CO2(g)           -3.24     -4.71   -1.47  CO2
  H2(g)           -41.29    -44.39   -3.10  H2
  H2O(g)           -1.50     -0.00    1.50  H2O
  O2(g)            -0.70     -3.59   -2.89  O2

**For a gas, SI = log10(fugacity). Fugacity = pressure * phi / 1 atm.
  For ideal gases, phi = 1.

Using solution 3.	
Using surface 3.	
Using pure phase assemblage 3.	

-------------------------------Phase assemblage--------------------------------

                                                      Moles in assemblage
Phase               SI  log IAP  log K(T, P)   Initial       Final       Delta

Calcite           0.00    -8.45     -8.45    0.000e+00   4.109e-14   4.109e-14
Cerussite            Element not present.    0.000e+00               0.000e+00
Hydrocerussite       Element not present.    0.000e+00               0.000e+00
Litharge             Element not present.    0.000e+00               0.000e+00

------------------------------Surface composition------------------------------

Diffuse Double Layer Surface-Complexation Model

Sura          
	  1.465e-13  Surface + diffuse layer charge, eq
	 -1.000e-03  Surface charge, eq
	 -9.649e-02  sigma, C/m²
	 -1.751e-01  psi, V
	  6.814e+00  -F*psi/RT
	  9.106e+02  exp(-F*psi/RT)
	  1.000e+02  specific area, m²/g
	  1.000e+03  m² for   1.000e+01 g

	Water in diffuse layer: 9.000e-04 kg, 100.0% of total DDL-water.
		      viscosity: 0.00000 mPa s for DDL water.

	Total moles in diffuse layer (excluding water), Donnan calculation.
	Donnan Layer potential, psi_DL = -8.130e-02 V.
	Boltzmann factor, exp(-psi_DL * F / RT) = 2.368e+01 (= c_DL / c_free if z is +1).

	Element       	     Moles
	C             	  5.9645e-08
	Ca            	  5.0004e-04
	Cl            	  3.8006e-08
	H             	  3.7393e-08
	O             	  6.2163e-07

Sura          
	  1.000e-03  moles
	                                   Mole                     Log
	Species               Moles    Fraction    Molality    Molality

	Sura-             1.000e-03       1.000   1.000e+01       1.000

-----------------------------Solution composition------------------------------

	Elements           Molality       Moles

	C                 1.000e-03   1.000e-07
	Ca                9.968e-04   9.968e-08
	Cl                1.000e-03   1.000e-07

----------------------------Description of solution----------------------------

                                       pH  =   8.026      Charge balance
                                       pe  =  12.592      Adjusted to redox equilibrium
      Specific Conductance (µS/cm,  25°C)  = 223
                          Density (g/cm³)  =   0.99715
                               Volume (L)  =   0.00010
                        Viscosity (mPa s)  =   0.89113
                        Activity of water  =   1.000
                 Ionic strength (mol/kgw)  =   2.978e-03
                       Mass of water (kg)  =   1.000e-04
                 Total alkalinity (eq/kg)  =   9.935e-04
                       Total CO2 (mol/kg)  =   1.000e-03
                         Temperature (°C)  =  25.00
                  Electrical balance (eq)  =   1.167e-12
 Percent error, 100*(Cat-|An|)/(Cat+|An|)  =   0.00
                               Iterations  =   1 (72 overall)
                                  Total H  = 1.110134e-02
                                  Total O  = 5.550971e-03

----------------------------Distribution of species----------------------------

                                               Log       Log       Log    mole V
   Species          Molality    Activity  Molality  Activity     Gamma   cm³/mol

   OH-             1.141e-06   1.074e-06    -5.943    -5.969    -0.026     -4.08
   H+              9.960e-09   9.425e-09    -8.002    -8.026    -0.024      0.00
   H2O             5.551e+01   9.999e-01     1.744    -0.000     0.000     18.07
C(-4)         0.000e+00
   CH4             0.000e+00   0.000e+00  -145.263  -145.263     0.000     35.46
C(4)          1.000e-03
   HCO3-           9.689e-04   9.140e-04    -3.014    -3.039    -0.025     24.60
   CO2             1.936e-05   1.937e-05    -4.713    -4.713     0.000     34.79
   CaCO3           5.985e-06   5.989e-06    -5.223    -5.223     0.000    -14.60
   CO3-2           5.745e-06   4.548e-06    -5.241    -5.342    -0.102     -4.57
   CaHCO3+         6.656e-11   6.282e-11   -10.177   -10.202    -0.025      9.69
   (CO2)2          6.096e-12   6.099e-12   -11.215   -11.215     0.000     68.75
Ca            9.968e-04
   Ca+2            9.908e-04   7.839e-04    -3.004    -3.106    -0.102    -18.07
   CaCO3           5.985e-06   5.989e-06    -5.223    -5.223     0.000    -14.60
   CaOH+           1.465e-08   1.380e-08    -7.834    -7.860    -0.026     (0)  
   CaHCO3+         6.656e-11   6.282e-11   -10.177   -10.202    -0.025      9.69
Cl            1.000e-03
   Cl-             1.000e-03   9.417e-04    -3.000    -3.026    -0.026     18.10
   HCl             3.049e-12   3.058e-12   -11.516   -11.515     0.001     20.36
H(0)          0.000e+00
   H2              0.000e+00   0.000e+00   -44.385   -44.385     0.000     14.99
O(0)          5.108e-04
   O2              2.554e-04   2.556e-04    -3.593    -3.592     0.000     30.40

------------------------------Saturation indices-------------------------------

  Phase               SI** log IAP   log K(298 K,   1 atm)

  Aragonite        -0.11     -8.45   -8.34  CaCO3
  Calcite           0.00     -8.45   -8.45  CaCO3
  CH4(g)         -142.46   -145.26   -2.80  CH4
  CO2(g)           -3.24     -4.71   -1.47  CO2
  H2(g)           -41.29    -44.39   -3.10  H2
  H2O(g)           -1.50     -0.00    1.50  H2O
  O2(g)            -0.70     -3.59   -2.89  O2

**For a gas, SI = log10(fugacity). Fugacity = pressure * phi / 1 atm.
  For ideal gases, phi = 1.

Using solution 4.	
Using surface 4.	
Using pure phase assemblage 4.	

-------------------------------Phase assemblage--------------------------------

                                                      Moles in assemblage
Phase               SI  log IAP  log K(T, P)   Initial       Final       Delta

Calcite           0.00    -8.45     -8.45    0.000e+00   4.109e-14   4.109e-14
Cerussite            Element not present.    0.000e+00               0.000e+00
Hydrocerussite       Element not present.    0.000e+00               0.000e+00
Litharge             Element not present.    0.000e+00               0.000e+00

------------------------------Surface composition------------------------------

Diffuse Double Layer Surface-Complexation Model

Sura          
	  1.465e-13  Surface + diffuse layer charge, eq
	 -1.000e-03  Surface charge, eq
	 -9.649e-02  sigma, C/m²
	 -1.751e-01  psi, V
	  6.814e+00  -F*psi/RT
	  9.106e+02  exp(-F*psi/RT)
	  1.000e+02  specific area, m²/g
	  1.000e+03  m² for   1.000e+01 g

	Water in diffuse layer: 9.000e-04 kg, 100.0% of total DDL-water.
		      viscosity: 0.00000 mPa s for DDL water.

	Total moles in diffuse layer (excluding water), Donnan calculation.
	Donnan Layer potential, psi_DL = -8.130e-02 V.
	Boltzmann factor, exp(-psi_DL * F / RT) = 2.368e+01 (= c_DL / c_free if z is +1).

	Element       	     Moles
	C             	  5.9645e-08
	Ca            	  5.0004e-04
	Cl            	  3.8006e-08
	H             	  3.7393e-08
	O             	  6.2163e-07

Sura          
	  1.000e-03  moles
	                                   Mole                     Log
	Species               Moles    Fraction    Molality    Molality

	Sura-             1.000e-03       1.000   1.000e+01       1.000

-----------------------------Solution composition------------------------------

	Elements           Molality       Moles

	C                 1.000e-03   1.000e-07
	Ca                9.968e-04   9.968e-08
	Cl                1.000e-03   1.000e-07

----------------------------Description of solution----------------------------

                                       pH  =   8.026      Charge balance
                                       pe  =  12.592      Adjusted to redox equilibrium
      Specific Conductance (µS/cm,  25°C)  = 223
                          Density (g/cm³)  =   0.99715
                               Volume (L)  =   0.00010
                        Viscosity (mPa s)  =   0.89113
                        Activity of water  =   1.000
                 Ionic strength (mol/kgw)  =   2.978e-03
                       Mass of water (kg)  =   1.000e-04
                 Total alkalinity (eq/kg)  =   9.935e-04
                       Total CO2 (mol/kg)  =   1.000e-03
                         Temperature (°C)  =  25.00
                  Electrical balance (eq)  =   1.167e-12
 Percent error, 100*(Cat-|An|)/(Cat+|An|)  =   0.00
                               Iterations  =   1 (91 overall)
                                  Total H  = 1.110134e-02
                                  Total O  = 5.550971e-03

----------------------------Distribution of species----------------------------

                                               Log       Log       Log    mole V
   Species          Molality    Activity  Molality  Activity     Gamma   cm³/mol

   OH-             1.141e-06   1.074e-06    -5.943    -5.969    -0.026     -4.08
   H+              9.960e-09   9.425e-09    -8.002    -8.026    -0.024      0.00
   H2O             5.551e+01   9.999e-01     1.744    -0.000     0.000     18.07
C(-4)         0.000e+00
   CH4             0.000e+00   0.000e+00  -145.263  -145.263     0.000     35.46
C(4)          1.000e-03
   HCO3-           9.689e-04   9.140e-04    -3.014    -3.039    -0.025     24.60
   CO2             1.936e-05   1.937e-05    -4.713    -4.713     0.000     34.79
   CaCO3           5.985e-06   5.989e-06    -5.223    -5.223     0.000    -14.60
   CO3-2           5.745e-06   4.548e-06    -5.241    -5.342    -0.102     -4.57
   CaHCO3+         6.656e-11   6.282e-11   -10.177   -10.202    -0.025      9.69
   (CO2)2          6.096e-12   6.099e-12   -11.215   -11.215     0.000     68.75
Ca            9.968e-04
   Ca+2            9.908e-04   7.839e-04    -3.004    -3.106    -0.102    -18.07
   CaCO3           5.985e-06   5.989e-06    -5.223    -5.223     0.000    -14.60
   CaOH+           1.465e-08   1.380e-08    -7.834    -7.860    -0.026     (0)  
   CaHCO3+         6.656e-11   6.282e-11   -10.177   -10.202    -0.025      9.69
Cl            1.000e-03
   Cl-             1.000e-03   9.417e-04    -3.000    -3.026    -0.026     18.10
   HCl             3.049e-12   3.058e-12   -11.516   -11.515     0.001     20.36
H(0)          0.000e+00
   H2              0.000e+00   0.000e+00   -44.385   -44.385     0.000     14.99
O(0)          5.108e-04
   O2              2.554e-04   2.556e-04    -3.593    -3.592     0.000     30.40

------------------------------Saturation indices-------------------------------

  Phase               SI** log IAP   log K(298 K,   1 atm)

  Aragonite        -0.11     -8.45   -8.34  CaCO3
  Calcite           0.00     -8.45   -8.45  CaCO3
  CH4(g)         -142.46   -145.26   -2.80  CH4
  CO2(g)           -3.24     -4.71   -1.47  CO2
  H2(g)           -41.29    -44.39   -3.10  H2
  H2O(g)           -1.50     -0.00    1.50  H2O
  O2(g)            -0.70     -3.59   -2.89  O2

**For a gas, SI = log10(fugacity). Fugacity = pressure * phi / 1 atm.
  For ideal gases, phi = 1.

Using solution 5.	
Using surface 5.	
Using pure phase assemblage 5.	

-------------------------------Phase assemblage--------------------------------

                                                      Moles in assemblage
Phase               SI  log IAP  log K(T, P)   Initial       Final       Delta

Calcite           0.00    -8.45     -8.45    0.000e+00   4.109e-14   4.109e-14
Cerussite            Element not present.    0.000e+00               0.000e+00
Hydrocerussite       Element not present.    0.000e+00               0.000e+00
Litharge             Element not present.    0.000e+00               0.000e+00

------------------------------Surface composition------------------------------

Diffuse Double Layer Surface-Complexation Model

Sura          
	  1.465e-13  Surface + diffuse layer charge, eq
	 -1.000e-03  Surface charge, eq
	 -9.649e-02  sigma, C/m²
	 -1.751e-01  psi, V
	  6.814e+00  -F*psi/RT
	  9.106e+02  exp(-F*psi/RT)
	  1.000e+02  specific area, m²/g
	  1.000e+03  m² for   1.000e+01 g

	Water in diffuse layer: 9.000e-04 kg, 100.0% of total DDL-water.
		      viscosity: 0.00000 mPa s for DDL water.

	Total moles in diffuse layer (excluding water), Donnan calculation.
	Donnan Layer potential, psi_DL = -8.130e-02 V.
	Boltzmann factor, exp(-psi_DL * F / RT) = 2.368e+01 (= c_DL / c_free if z is +1).

	Element       	     Moles
	C             	  5.9645e-08
	Ca            	  5.0004e-04
	Cl            	  3.8006e-08
	H             	  3.7393e-08
	O             	  6.2163e-07

Sura          
	  1.000e-03  moles
	                                   Mole                     Log
	Species               Moles    Fraction    Molality    Molality

	Sura-             1.000e-03       1.000   1.000e+01       1.000

-----------------------------Solution composition------------------------------

	Elements           Molality       Moles

	C                 1.000e-03   1.000e-07
	Ca                9.968e-04   9.968e-08
	Cl                1.000e-03   1.000e-07

----------------------------Description of solution----------------------------

                                       pH  =   8.026      Charge balance
                                       pe  =  12.592      Adjusted to redox equilibrium
      Specific Conductance (µS/cm,  25°C)  = 223
                          Density (g/cm³)  =   0.99715
                               Volume (L)  =   0.00010
                        Viscosity (mPa s)  =   0.89113
                        Activity of water  =   1.000
                 Ionic strength (mol/kgw)  =   2.978e-03
                       Mass of water (kg)  =   1.000e-04
                 Total alkalinity (eq/kg)  =   9.935e-04
                       Total CO2 (mol/kg)  =   1.000e-03
                         Temperature (°C)  =  25.00
                  Electrical balance (eq)  =   1.167e-12
 Percent error, 100*(Cat-|An|)/(Cat+|An|)  =   0.00
                               Iterations  =   1 (110 overall)
                                  Total H  = 1.110134e-02
                                  Total O  = 5.550971e-03

----------------------------Distribution of species----------------------------

                                               Log       Log       Log    mole V
   Species          Molality    Activity  Molality  Activity     Gamma   cm³/mol

   OH-             1.141e-06   1.074e-06    -5.943    -5.969    -0.026     -4.08
   H+              9.960e-09   9.425e-09    -8.002    -8.026    -0.024      0.00
   H2O             5.551e+01   9.999e-01     1.744    -0.000     0.000     18.07
C(-4)         0.000e+00
   CH4             0.000e+00   0.000e+00  -145.263  -145.263     0.000     35.46
C(4)          1.000e-03
   HCO3-           9.689e-04   9.140e-04    -3.014    -3.039    -0.025     24.60
   CO2             1.936e-05   1.937e-05    -4.713    -4.713     0.000     34.79
   CaCO3           5.985e-06   5.989e-06    -5.223    -5.223     0.000    -14.60
   CO3-2           5.745e-06   4.548e-06    -5.241    -5.342    -0.102     -4.57
   CaHCO3+         6.656e-11   6.282e-11   -10.177   -10.202    -0.025      9.69
   (CO2)2          6.096e-12   6.099e-12   -11.215   -11.215     0.000     68.75
Ca            9.968e-04
   Ca+2            9.908e-04   7.839e-04    -3.004    -3.106    -0.102    -18.07
   CaCO3           5.985e-06   5.989e-06    -5.223    -5.223     0.000    -14.60
   CaOH+           1.465e-08   1.380e-08    -7.834    -7.860    -0.026     (0)  
   CaHCO3+         6.656e-11   6.282e-11   -10.177   -10.202    -0.025      9.69
Cl            1.000e-03
   Cl-             1.000e-03   9.417e-04    -3.000    -3.026    -0.026     18.10
   HCl             3.049e-12   3.058e-12   -11.516   -11.515     0.001     20.36
H(0)          0.000e+00
   H2              0.000e+00   0.000e+00   -44.385   -44.385     0.000     14.99
O(0)          5.108e-04
   O2              2.554e-04   2.556e-04    -3.593    -3.592     0.000     30.40

------------------------------Saturation indices-------------------------------

  Phase               SI** log IAP   log K(298 K,   1 atm)

  Aragonite        -0.11     -8.45   -8.34  CaCO3
  Calcite           0.00     -8.45   -8.45  CaCO3
  CH4(g)         -142.46   -145.26   -2.80  CH4
  CO2(g)           -3.24     -4.71   -1.47  CO2
  H2(g)           -41.29    -44.39   -3.10  H2
  H2O(g)           -1.50     -0.00    1.50  H2O
  O2(g)            -0.70     -3.59   -2.89  O2

**For a gas, SI = log10(fugacity). Fugacity = pressure * phi / 1 atm.
  For ideal gases, phi = 1.

Using solution 6.	
Using surface 6.	
Using pure phase assemblage 6.	

-------------------------------Phase assemblage--------------------------------

                                                      Moles in assemblage
Phase               SI  log IAP  log K(T, P)   Initial       Final       Delta

Calcite           0.00    -8.45     -8.45    0.000e+00   4.109e-14   4.109e-14
Cerussite            Element not present.    0.000e+00               0.000e+00
Hydrocerussite       Element not present.    0.000e+00               0.000e+00
Litharge             Element not present.    0.000e+00               0.000e+00

------------------------------Surface composition------------------------------

Diffuse Double Layer Surface-Complexation Model

Sura          
	  1.465e-13  Surface + diffuse layer charge, eq
	 -1.000e-03  Surface charge, eq
	 -9.649e-02  sigma, C/m²
	 -1.751e-01  psi, V
	  6.814e+00  -F*psi/RT
	  9.106e+02  exp(-F*psi/RT)
	  1.000e+02  specific area, m²/g
	  1.000e+03  m² for   1.000e+01 g

	Water in diffuse layer: 9.000e-04 kg, 100.0% of total DDL-water.
		      viscosity: 0.00000 mPa s for DDL water.

	Total moles in diffuse layer (excluding water), Donnan calculation.
	Donnan Layer potential, psi_DL = -8.130e-02 V.
	Boltzmann factor, exp(-psi_DL * F / RT) = 2.368e+01 (= c_DL / c_free if z is +1).

	Element       	     Moles
	C             	  5.9645e-08
	Ca            	  5.0004e-04
	Cl            	  3.8006e-08
	H             	  3.7393e-08
	O             	  6.2163e-07

Sura          
	  1.000e-03  moles
	                                   Mole                     Log
	Species               Moles    Fraction    Molality    Molality

	Sura-             1.000e-03       1.000   1.000e+01       1.000

-----------------------------Solution composition------------------------------

	Elements           Molality       Moles

	C                 1.000e-03   1.000e-07
	Ca                9.968e-04   9.968e-08
	Cl                1.000e-03   1.000e-07

----------------------------Description of solution----------------------------

                                       pH  =   8.026      Charge balance
                                       pe  =  12.592      Adjusted to redox equilibrium
      Specific Conductance (µS/cm,  25°C)  = 223
                          Density (g/cm³)  =   0.99715
                               Volume (L)  =   0.00010
                        Viscosity (mPa s)  =   0.89113
                        Activity of water  =   1.000
                 Ionic strength (mol/kgw)  =   2.978e-03
                       Mass of water (kg)  =   1.000e-04
                 Total alkalinity (eq/kg)  =   9.935e-04
                       Total CO2 (mol/kg)  =   1.000e-03
                         Temperature (°C)  =  25.00
                  Electrical balance (eq)  =   1.167e-12
 Percent error, 100*(Cat-|An|)/(Cat+|An|)  =   0.00
                               Iterations  =   1 (129 overall)
                                  Total H  = 1.110134e-02
                                  Total O  = 5.550971e-03

----------------------------Distribution of species----------------------------

                                               Log       Log       Log    mole V
   Species          Molality    Activity  Molality  Activity     Gamma   cm³/mol

   OH-             1.141e-06   1.074e-06    -5.943    -5.969    -0.026     -4.08
   H+              9.960e-09   9.425e-09    -8.002    -8.026    -0.024      0.00
   H2O             5.551e+01   9.999e-01     1.744    -0.000     0.000     18.07
C(-4)         0.000e+00
   CH4             0.000e+00   0.000e+00  -145.263  -145.263     0.000     35.46
C(4)          1.000e-03
   HCO3-           9.689e-04   9.140e-04    -3.014    -3.039    -0.025     24.60
   CO2             1.936e-05   1.937e-05    -4.713    -4.713     0.000     34.79
   CaCO3           5.985e-06   5.989e-06    -5.223    -5.223     0.000    -14.60
   CO3-2           5.745e-06   4.548e-06    -5.241    -5.342    -0.102     -4.57
   CaHCO3+         6.656e-11   6.282e-11   -10.177   -10.202    -0.025      9.69
   (CO2)2          6.096e-12   6.099e-12   -11.215   -11.215     0.000     68.75
Ca            9.968e-04
   Ca+2            9.908e-04   7.839e-04    -3.004    -3.106    -0.102    -18.07
   CaCO3           5.985e-06   5.989e-06    -5.223    -5.223     0.000    -14.60
   CaOH+           1.465e-08   1.380e-08    -7.834    -7.860    -0.026     (0)  
   CaHCO3+         6.656e-11   6.282e-11   -10.177   -10.202    -0.025      9.69
Cl            1.000e-03
   Cl-             1.000e-03   9.417e-04    -3.000    -3.026    -0.026     18.10
   HCl             3.049e-12   3.058e-12   -11.516   -11.515     0.001     20.36
H(0)          0.000e+00
   H2              0.000e+00   0.000e+00   -44.385   -44.385     0.000     14.99
O(0)          5.108e-04
   O2              2.554e-04   2.556e-04    -3.593    -3.592     0.000     30.40

------------------------------Saturation indices-------------------------------

  Phase               SI** log IAP   log K(298 K,   1 atm)

  Aragonite        -0.11     -8.45   -8.34  CaCO3
  Calcite           0.00     -8.45   -8.45  CaCO3
  CH4(g)         -142.46   -145.26   -2.80  CH4
  CO2(g)           -3.24     -4.71   -1.47  CO2
  H2(g)           -41.29    -44.39   -3.10  H2
  H2O(g)           -1.50     -0.00    1.50  H2O
  O2(g)            -0.70     -3.59   -2.89  O2

**For a gas, SI = log10(fugacity). Fugacity = pressure * phi / 1 atm.
  For ideal gases, phi = 1.

Using solution 7.	
Using surface 7.	
Using pure phase assemblage 7.	

-------------------------------Phase assemblage--------------------------------

                                                      Moles in assemblage
Phase               SI  log IAP  log K(T, P)   Initial       Final       Delta

Calcite           0.00    -8.45     -8.45    0.000e+00   4.109e-14   4.109e-14
Cerussite            Element not present.    0.000e+00               0.000e+00
Hydrocerussite       Element not present.    0.000e+00               0.000e+00
Litharge             Element not present.    0.000e+00               0.000e+00

------------------------------Surface composition------------------------------

Diffuse Double Layer Surface-Complexation Model

Sura          
	  1.465e-13  Surface + diffuse layer charge, eq
	 -1.000e-03  Surface charge, eq
	 -9.649e-02  sigma, C/m²
	 -1.751e-01  psi, V
	  6.814e+00  -F*psi/RT
	  9.106e+02  exp(-F*psi/RT)
	  1.000e+02  specific area, m²/g
	  1.000e+03  m² for   1.000e+01 g

	Water in diffuse layer: 9.000e-04 kg, 100.0% of total DDL-water.
		      viscosity: 0.00000 mPa s for DDL water.

	Total moles in diffuse layer (excluding water), Donnan calculation.
	Donnan Layer potential, psi_DL = -8.130e-02 V.
	Boltzmann factor, exp(-psi_DL * F / RT) = 2.368e+01 (= c_DL / c_free if z is +1).

	Element       	     Moles
	C             	  5.9645e-08
	Ca            	  5.0004e-04
	Cl            	  3.8006e-08
	H             	  3.7393e-08
	O             	  6.2163e-07

Sura          
	  1.000e-03  moles
	                                   Mole                     Log
	Species               Moles    Fraction    Molality    Molality

	Sura-             1.000e-03       1.000   1.000e+01       1.000

-----------------------------Solution composition------------------------------

	Elements           Molality       Moles

	C                 1.000e-03   1.000e-07
	Ca                9.968e-04   9.968e-08
	Cl                1.000e-03   1.000e-07

----------------------------Description of solution----------------------------

                                       pH  =   8.026      Charge balance
                                       pe  =  12.592      Adjusted to redox equilibrium
      Specific Conductance (µS/cm,  25°C)  = 223
                          Density (g/cm³)  =   0.99715
                               Volume (L)  =   0.00010
                        Viscosity (mPa s)  =   0.89113
                        Activity of water  =   1.000
                 Ionic strength (mol/kgw)  =   2.978e-03
                       Mass of water (kg)  =   1.000e-04
                 Total alkalinity (eq/kg)  =   9.935e-04
                       Total CO2 (mol/kg)  =   1.000e-03
                         Temperature (°C)  =  25.00
                  Electrical balance (eq)  =   1.167e-12
 Percent error, 100*(Cat-|An|)/(Cat+|An|)  =   0.00
                               Iterations  =   1 (148 overall)
                                  Total H  = 1.110134e-02
                                  Total O  = 5.550971e-03

----------------------------Distribution of species----------------------------

                                               Log       Log       Log    mole V
   Species          Molality    Activity  Molality  Activity     Gamma   cm³/mol

   OH-             1.141e-06   1.074e-06    -5.943    -5.969    -0.026     -4.08
   H+              9.960e-09   9.425e-09    -8.002    -8.026    -0.024      0.00
   H2O             5.551e+01   9.999e-01     1.744    -0.000     0.000     18.07
C(-4)         0.000e+00
   CH4             0.000e+00   0.000e+00  -145.263  -145.263     0.000     35.46
C(4)          1.000e-03
   HCO3-           9.689e-04   9.140e-04    -3.014    -3.039    -0.025     24.60
   CO2             1.936e-05   1.937e-05    -4.713    -4.713     0.000     34.79
   CaCO3           5.985e-06   5.989e-06    -5.223    -5.223     0.000    -14.60
   CO3-2           5.745e-06   4.548e-06    -5.241    -5.342    -0.102     -4.57
   CaHCO3+         6.656e-11   6.282e-11   -10.177   -10.202    -0.025      9.69
   (CO2)2          6.096e-12   6.099e-12   -11.215   -11.215     0.000     68.75
Ca            9.968e-04
   Ca+2            9.908e-04   7.839e-04    -3.004    -3.106    -0.102    -18.07
   CaCO3           5.985e-06   5.989e-06    -5.223    -5.223     0.000    -14.60
   CaOH+           1.465e-08   1.380e-08    -7.834    -7.860    -0.026     (0)  
   CaHCO3+         6.656e-11   6.282e-11   -10.177   -10.202    -0.025      9.69
Cl            1.000e-03
   Cl-             1.000e-03   9.417e-04    -3.000    -3.026    -0.026     18.10
   HCl             3.049e-12   3.058e-12   -11.516   -11.515     0.001     20.36
H(0)          0.000e+00
   H2              0.000e+00   0.000e+00   -44.385   -44.385     0.000     14.99
O(0)          5.108e-04
   O2              2.554e-04   2.556e-04    -3.593    -3.592     0.000     30.40

------------------------------Saturation indices-------------------------------

  Phase               SI** log IAP   log K(298 K,   1 atm)

  Aragonite        -0.11     -8.45   -8.34  CaCO3
  Calcite           0.00     -8.45   -8.45  CaCO3
  CH4(g)         -142.46   -145.26   -2.80  CH4
  CO2(g)           -3.24     -4.71   -1.47  CO2
  H2(g)           -41.29    -44.39   -3.10  H2
  H2O(g)           -1.50     -0.00    1.50  H2O
  O2(g)            -0.70     -3.59   -2.89  O2

**For a gas, SI = log10(fugacity). Fugacity = pressure * phi / 1 atm.
  For ideal gases, phi = 1.

Using solution 8.	
Using surface 8.	
Using pure phase assemblage 8.	

-------------------------------Phase assemblage--------------------------------

                                                      Moles in assemblage
Phase               SI  log IAP  log K(T, P)   Initial       Final       Delta

Calcite          -0.92    -9.37     -8.45    0.000e+00               0.000e+00
Cerussite        -1.92   -15.05    -13.13    0.000e+00               0.000e+00
Hydrocerussite    0.00    -5.82     -5.82    0.000e+00   2.382e-07   2.382e-07
Litharge          0.00    12.64     12.64    0.000e+00   1.207e-07   1.207e-07
Pb                0.00    47.17     47.17    1.000e+01   1.000e+01  -5.108e-07

------------------------------Surface composition------------------------------

Diffuse Double Layer Surface-Complexation Model

Sura          
	  3.060e-15  Surface + diffuse layer charge, eq
	 -1.000e-03  Surface charge, eq
	 -9.649e-02  sigma, C/m²
	 -1.798e-01  psi, V
	  6.997e+00  -F*psi/RT
	  1.093e+03  exp(-F*psi/RT)
	  1.000e+02  specific area, m²/g
	  1.000e+03  m² for   1.000e+01 g

	Water in diffuse layer: 9.000e-04 kg, 100.0% of total DDL-water.
		      viscosity: 0.00000 mPa s for DDL water.

	Total moles in diffuse layer (excluding water), Donnan calculation.
	Donnan Layer potential, psi_DL = -8.369e-02 V.
	Boltzmann factor, exp(-psi_DL * F / RT) = 2.599e+01 (= c_DL / c_free if z is +1).

	Element       	     Moles
	C             	  6.7219e-10
	Ca            	  5.0006e-04
	Cl            	  3.5503e-08
	H             	  3.7432e-07
	O             	  3.7632e-07
	Pb            	  1.4598e-07

Sura          
	  1.000e-03  moles
	                                   Mole                     Log
	Species               Moles    Fraction    Molality    Molality

	Sura-             1.000e-03       1.000   1.000e+01       1.000

-----------------------------Solution composition------------------------------

	Elements           Molality       Moles

	C                 1.798e-06   1.798e-10
	Ca                8.298e-04   8.297e-08
	Cl                1.025e-03   1.025e-07
	Pb                6.004e-05   6.004e-09

----------------------------Description of solution----------------------------

                                       pH  =  10.747      Charge balance
                                       pe  =  -6.500      Adjusted to redox equilibrium
      Specific Conductance (µS/cm,  25°C)  = 280
                          Density (g/cm³)  =   0.99714
                               Volume (L)  =   0.00010
                        Viscosity (mPa s)  =   0.89084
                        Activity of water  =   1.000
                 Ionic strength (mol/kgw)  =   2.480e-03
                       Mass of water (kg)  =   1.000e-04
                 Total alkalinity (eq/kg)  =   7.545e-04
                       Total CO2 (mol/kg)  =   1.798e-06
                         Temperature (°C)  =  25.00
                  Electrical balance (eq)  =   1.167e-12
 Percent error, 100*(Cat-|An|)/(Cat+|An|)  =   0.00
                               Iterations  =   1 (170 overall)
                                  Total H  = 1.110084e-02
                                  Total O  = 5.550460e-03

----------------------------Distribution of species----------------------------

                                               Log       Log       Log    mole V
   Species          Molality    Activity  Molality  Activity     Gamma   cm³/mol

   OH-             5.974e-04   5.653e-04    -3.224    -3.248    -0.024     -4.09
   H+              1.884e-11   1.791e-11   -10.725   -10.747    -0.022      0.00
   H2O             5.551e+01   1.000e+00     1.744    -0.000     0.000     18.07
C(-4)         2.587e-21
   CH4             2.587e-21   2.588e-21   -20.587   -20.587     0.000     35.46
C(4)          1.798e-06
   CO3-2           8.018e-07   6.467e-07    -6.096    -6.189    -0.093     -4.59
   CaCO3           7.201e-07   7.205e-07    -6.143    -6.142     0.000    -14.60
   HCO3-           2.605e-07   2.469e-07    -6.584    -6.607    -0.023     24.59
   PbCO3           1.556e-08   1.557e-08    -7.808    -7.808     0.000     (0)  
   Pb(CO3)2-2      3.149e-11   2.529e-11   -10.502   -10.597    -0.095     (0)  
   CO2             9.936e-12   9.940e-12   -11.003   -11.003     0.000     34.79
   PbHCO3+         2.870e-13   2.717e-13   -12.542   -12.566    -0.024     (0)  
   CaHCO3+         1.514e-14   1.436e-14   -13.820   -13.843    -0.023      9.68
   (CO2)2          1.606e-24   1.606e-24   -23.794   -23.794     0.000     68.75
Ca            8.298e-04
   Ca+2            8.225e-04   6.632e-04    -3.085    -3.178    -0.094    -18.08
   CaOH+           6.493e-06   6.147e-06    -5.188    -5.211    -0.024     (0)  
   CaCO3           7.201e-07   7.205e-07    -6.143    -6.142     0.000    -14.60
   CaHCO3+         1.514e-14   1.436e-14   -13.820   -13.843    -0.023      9.68
Cl            1.025e-03
   Cl-             1.025e-03   9.701e-04    -2.989    -3.013    -0.024     18.09
   PbCl+           5.652e-11   5.350e-11   -10.248   -10.272    -0.024      7.97
   PbCl2           8.221e-14   8.226e-14   -13.085   -13.085     0.000     34.97
   HCl             5.969e-15   5.984e-15   -14.224   -14.223     0.001     20.36
   PbCl3-          6.696e-17   6.339e-17   -16.174   -16.198    -0.024     65.97
   PbCl4-2         3.665e-20   2.943e-20   -19.436   -19.531    -0.095    101.42
H(0)          4.540e-12
   H2              2.270e-12   2.272e-12   -11.644   -11.644     0.000     14.99
O(0)          0.000e+00
   O2              0.000e+00   0.000e+00   -69.075   -69.075     0.000     30.40
Pb            6.004e-05
   Pb(OH)2         3.276e-05   3.277e-05    -4.485    -4.484     0.000     (0)  
   Pb(OH)3-        2.220e-05   2.102e-05    -4.654    -4.677    -0.024     (0)  
   Pb(OH)4-2       3.348e-06   2.689e-06    -5.475    -5.570    -0.095     (0)  
   PbOH+           1.593e-06   1.508e-06    -5.798    -5.821    -0.024     (0)  
   Pb3(OH)4+2      4.245e-08   3.409e-08    -7.372    -7.467    -0.095     (0)  
   PbCO3           1.556e-08   1.557e-08    -7.808    -7.808     0.000     (0)  
   Pb+2            1.725e-09   1.385e-09    -8.763    -8.858    -0.095    -15.48
   PbCl+           5.652e-11   5.350e-11   -10.248   -10.272    -0.024      7.97
   Pb(CO3)2-2      3.149e-11   2.529e-11   -10.502   -10.597    -0.095     (0)  
   PbHCO3+         2.870e-13   2.717e-13   -12.542   -12.566    -0.024     (0)  
   PbCl2           8.221e-14   8.226e-14   -13.085   -13.085     0.000     34.97
   Pb2OH+3         7.663e-14   4.678e-14   -13.116   -13.330    -0.214     (0)  
   PbCl3-          6.696e-17   6.339e-17   -16.174   -16.198    -0.024     65.97
   PbCl4-2         3.665e-20   2.943e-20   -19.436   -19.531    -0.095    101.42

------------------------------Saturation indices-------------------------------

  Phase               SI** log IAP   log K(298 K,   1 atm)

  Aragonite        -1.03     -9.37   -8.34  CaCO3
  Calcite          -0.92     -9.37   -8.45  CaCO3
  Cerussite        -1.92    -15.05  -13.13  PbCO3
  CH4(g)          -17.79    -20.59   -2.80  CH4
  CO2(g)           -9.53    -11.00   -1.47  CO2
  H2(g)            -8.54    -11.64   -3.10  H2
  H2O(g)           -1.50     -0.00    1.50  H2O
  Hydrocerussite    0.00     -5.82   -5.82  Pb(OH)0.6666666667(CO3)0.6666666667
  Litharge          0.00     12.64   12.64  PbO
  O2(g)           -66.18    -69.08   -2.89  O2
  Pb                0.00     47.17   47.17  Pb
  Pb(OH)2           4.49     12.64    8.15  Pb(OH)2

**For a gas, SI = log10(fugacity). Fugacity = pressure * phi / 1 atm.
  For ideal gases, phi = 1.

Using solution 9.	
Using pure phase assemblage 9.	

-------------------------------Phase assemblage--------------------------------

                                                      Moles in assemblage
Phase               SI  log IAP  log K(T, P)   Initial       Final       Delta

Calcite           0.00    -8.45     -8.45    0.000e+00   4.085e-08   4.085e-08
Cerussite        -0.46   -13.59    -13.13    0.000e+00               0.000e+00
Hydrocerussite    0.00    -5.82     -5.82    0.000e+00   6.215e-08   6.215e-08
Litharge         -2.91     9.72     12.64    0.000e+00               0.000e+00
Pb                0.00    47.17     47.17    1.000e+01   1.000e+01  -6.221e-08

-----------------------------Solution composition------------------------------

	Elements           Molality       Moles

	C                 1.772e-04   1.772e-08
	Ca                5.883e-04   5.883e-08
	Cl                1.000e-03   1.000e-07
	Pb                5.887e-07   5.887e-11

----------------------------Description of solution----------------------------

                                       pH  =   9.089      Charge balance
                                       pe  =  -6.299      Adjusted to redox equilibrium
      Specific Conductance (µS/cm,  25°C)  = 147
                          Density (g/cm³)  =   0.99710
                               Volume (L)  =   0.00010
                        Viscosity (mPa s)  =   0.89070
                        Activity of water  =   1.000
                 Ionic strength (mol/kgw)  =   1.756e-03
                       Mass of water (kg)  =   1.000e-04
                 Total alkalinity (eq/kg)  =   1.777e-04
                       Total CO2 (mol/kg)  =   1.493e-04
                         Temperature (°C)  =  25.00
                  Electrical balance (eq)  =  -2.441e-20
 Percent error, 100*(Cat-|An|)/(Cat+|An|)  =  -0.00
                               Iterations  =  23 (193 overall)
                                  Total H  = 1.110130e-02
                                  Total O  = 5.550683e-03

----------------------------Distribution of species----------------------------

                                               Log       Log       Log    mole V
   Species          Molality    Activity  Molality  Activity     Gamma   cm³/mol

   OH-             1.302e-05   1.242e-05    -4.885    -4.906    -0.020     -4.10
   H+              8.513e-10   8.148e-10    -9.070    -9.089    -0.019      0.00
   H2O             5.551e+01   1.000e+00     1.744    -0.000     0.000     18.07
C(-4)         2.781e-05
   CH4             2.781e-05   2.782e-05    -4.556    -4.556     0.000     35.46
C(4)          1.493e-04
   HCO3-           1.338e-04   1.278e-04    -3.873    -3.893    -0.020     24.58
   CO3-2           8.836e-06   7.357e-06    -5.054    -5.133    -0.080     -4.63
   CaCO3           5.987e-06   5.989e-06    -5.223    -5.223     0.000    -14.60
   PbCO3           4.461e-07   4.463e-07    -6.351    -6.350     0.000     (0)  
   CO2             2.341e-07   2.342e-07    -6.631    -6.630     0.000     34.79
   Pb(CO3)2-2      9.938e-09   8.248e-09    -8.003    -8.084    -0.081     (0)  
   PbHCO3+         3.714e-10   3.545e-10    -9.430    -9.450    -0.020     (0)  
   CaHCO3+         5.683e-12   5.431e-12   -11.245   -11.265    -0.020      9.68
   (CO2)2          8.915e-16   8.917e-16   -15.050   -15.050     0.000     68.75
Ca            5.883e-04
   Ca+2            5.822e-04   4.846e-04    -3.235    -3.315    -0.080    -18.11
   CaCO3           5.987e-06   5.989e-06    -5.223    -5.223     0.000    -14.60
   CaOH+           1.034e-07   9.869e-08    -6.985    -7.006    -0.020     (0)  
   CaHCO3+         5.683e-12   5.431e-12   -11.245   -11.265    -0.020      9.68
Cl            1.000e-03
   Cl-             1.000e-03   9.543e-04    -3.000    -3.020    -0.020     18.08
   PbCl+           1.389e-10   1.326e-10    -9.857    -9.877    -0.020      7.96
   HCl             2.674e-13   2.679e-13   -12.573   -12.572     0.001     20.36
   PbCl2           2.005e-13   2.006e-13   -12.698   -12.698     0.000     34.97
   PbCl3-          1.593e-16   1.520e-16   -15.798   -15.818    -0.020     65.96
   PbCl4-2         8.367e-20   6.944e-20   -19.077   -19.158    -0.081    101.39
H(0)          3.732e-09
   H2              1.866e-09   1.867e-09    -8.729    -8.729     0.000     14.99
O(0)          0.000e+00
   O2              0.000e+00   0.000e+00   -74.905   -74.905     0.000     30.40
Pb            5.887e-07
   PbCO3           4.461e-07   4.463e-07    -6.351    -6.350     0.000     (0)  
   PbOH+           8.751e-08   8.353e-08    -7.058    -7.078    -0.020     (0)  
   Pb(OH)2         3.986e-08   3.988e-08    -7.399    -7.399     0.000     (0)  
   Pb(CO3)2-2      9.938e-09   8.248e-09    -8.003    -8.084    -0.081     (0)  
   Pb+2            4.206e-09   3.491e-09    -8.376    -8.457    -0.081    -15.51
   Pb(OH)3-        5.887e-10   5.619e-10    -9.230    -9.250    -0.020     (0)  
   PbHCO3+         3.714e-10   3.545e-10    -9.430    -9.450    -0.020     (0)  
   PbCl+           1.389e-10   1.326e-10    -9.857    -9.877    -0.020      7.96
   Pb(OH)4-2       1.903e-12   1.580e-12   -11.720   -11.801    -0.081     (0)  
   PbCl2           2.005e-13   2.006e-13   -12.698   -12.698     0.000     34.97
   Pb3(OH)4+2      1.532e-13   1.272e-13   -12.815   -12.896    -0.081     (0)  
   Pb2OH+3         9.930e-15   6.528e-15   -14.003   -14.185    -0.182     (0)  
   PbCl3-          1.593e-16   1.520e-16   -15.798   -15.818    -0.020     65.96
   PbCl4-2         8.367e-20   6.944e-20   -19.077   -19.158    -0.081    101.39

------------------------------Saturation indices-------------------------------

  Phase               SI** log IAP   log K(298 K,   1 atm)

  Aragonite        -0.11     -8.45   -8.34  CaCO3
  Calcite           0.00     -8.45   -8.45  CaCO3
  Cerussite        -0.46    -13.59  -13.13  PbCO3
  CH4(g)           -1.75     -4.56   -2.80  CH4
  CO2(g)           -5.16     -6.63   -1.47  CO2
  H2(g)            -5.63     -8.73   -3.10  H2
  H2O(g)           -1.50     -0.00    1.50  H2O
  Hydrocerussite    0.00     -5.82   -5.82  Pb(OH)0.6666666667(CO3)0.6666666667
  Litharge         -2.91      9.72   12.64  PbO
  O2(g)           -72.01    -74.90   -2.89  O2
  Pb                0.00     47.17   47.17  Pb
  Pb(OH)2           1.57      9.72    8.15  Pb(OH)2

**For a gas, SI = log10(fugacity). Fugacity = pressure * phi / 1 atm.
  For ideal gases, phi = 1.

Using solution 10.	
Using pure phase assemblage 10.	

-------------------------------Phase assemblage--------------------------------

                                                      Moles in assemblage
Phase               SI  log IAP  log K(T, P)   Initial       Final       Delta

Calcite           0.00    -8.45     -8.45    0.000e+00   4.085e-08   4.085e-08
Cerussite        -0.46   -13.59    -13.13    0.000e+00               0.000e+00
Hydrocerussite    0.00    -5.82     -5.82    0.000e+00   6.215e-08   6.215e-08
Litharge         -2.91     9.72     12.64    0.000e+00               0.000e+00
Pb                0.00    47.17     47.17    1.000e+01   1.000e+01  -6.221e-08

-----------------------------Solution composition------------------------------

	Elements           Molality       Moles

	C                 1.772e-04   1.772e-08
	Ca                5.883e-04   5.883e-08
	Cl                1.000e-03   1.000e-07
	Pb                5.887e-07   5.887e-11

----------------------------Description of solution----------------------------

                                       pH  =   9.089      Charge balance
                                       pe  =  -6.299      Adjusted to redox equilibrium
      Specific Conductance (µS/cm,  25°C)  = 147
                          Density (g/cm³)  =   0.99710
                               Volume (L)  =   0.00010
                        Viscosity (mPa s)  =   0.89070
                        Activity of water  =   1.000
                 Ionic strength (mol/kgw)  =   1.756e-03
                       Mass of water (kg)  =   1.000e-04
                 Total alkalinity (eq/kg)  =   1.777e-04
                       Total CO2 (mol/kg)  =   1.493e-04
                         Temperature (°C)  =  25.00
                  Electrical balance (eq)  =  -2.441e-20
 Percent error, 100*(Cat-|An|)/(Cat+|An|)  =  -0.00
                               Iterations  =  23 (216 overall)
                                  Total H  = 1.110130e-02
                                  Total O  = 5.550683e-03

----------------------------Distribution of species----------------------------

                                               Log       Log       Log    mole V
   Species          Molality    Activity  Molality  Activity     Gamma   cm³/mol

   OH-             1.302e-05   1.242e-05    -4.885    -4.906    -0.020     -4.10
   H+              8.513e-10   8.148e-10    -9.070    -9.089    -0.019      0.00
   H2O             5.551e+01   1.000e+00     1.744    -0.000     0.000     18.07
C(-4)         2.781e-05
   CH4             2.781e-05   2.782e-05    -4.556    -4.556     0.000     35.46
C(4)          1.493e-04
   HCO3-           1.338e-04   1.278e-04    -3.873    -3.893    -0.020     24.58
   CO3-2           8.836e-06   7.357e-06    -5.054    -5.133    -0.080     -4.63
   CaCO3           5.987e-06   5.989e-06    -5.223    -5.223     0.000    -14.60
   PbCO3           4.461e-07   4.463e-07    -6.351    -6.350     0.000     (0)  
   CO2             2.341e-07   2.342e-07    -6.631    -6.630     0.000     34.79
   Pb(CO3)2-2      9.938e-09   8.248e-09    -8.003    -8.084    -0.081     (0)  
   PbHCO3+         3.714e-10   3.545e-10    -9.430    -9.450    -0.020     (0)  
   CaHCO3+         5.683e-12   5.431e-12   -11.245   -11.265    -0.020      9.68
   (CO2)2          8.915e-16   8.917e-16   -15.050   -15.050     0.000     68.75
Ca            5.883e-04
   Ca+2            5.822e-04   4.846e-04    -3.235    -3.315    -0.080    -18.11
   CaCO3           5.987e-06   5.989e-06    -5.223    -5.223     0.000    -14.60
   CaOH+           1.034e-07   9.869e-08    -6.985    -7.006    -0.020     (0)  
   CaHCO3+         5.683e-12   5.431e-12   -11.245   -11.265    -0.020      9.68
Cl            1.000e-03
   Cl-             1.000e-03   9.543e-04    -3.000    -3.020    -0.020     18.08
   PbCl+           1.389e-10   1.326e-10    -9.857    -9.877    -0.020      7.96
   HCl             2.674e-13   2.679e-13   -12.573   -12.572     0.001     20.36
   PbCl2           2.005e-13   2.006e-13   -12.698   -12.698     0.000     34.97
   PbCl3-          1.593e-16   1.520e-16   -15.798   -15.818    -0.020     65.96
   PbCl4-2         8.367e-20   6.944e-20   -19.077   -19.158    -0.081    101.39
H(0)          3.732e-09
   H2              1.866e-09   1.867e-09    -8.729    -8.729     0.000     14.99
O(0)          0.000e+00
   O2              0.000e+00   0.000e+00   -74.905   -74.905     0.000     30.40
Pb            5.887e-07
   PbCO3           4.461e-07   4.463e-07    -6.351    -6.350     0.000     (0)  
   PbOH+           8.751e-08   8.353e-08    -7.058    -7.078    -0.020     (0)  
   Pb(OH)2         3.986e-08   3.988e-08    -7.399    -7.399     0.000     (0)  
   Pb(CO3)2-2      9.938e-09   8.248e-09    -8.003    -8.084    -0.081     (0)  
   Pb+2            4.206e-09   3.491e-09    -8.376    -8.457    -0.081    -15.51
   Pb(OH)3-        5.887e-10   5.619e-10    -9.230    -9.250    -0.020     (0)  
   PbHCO3+         3.714e-10   3.545e-10    -9.430    -9.450    -0.020     (0)  
   PbCl+           1.389e-10   1.326e-10    -9.857    -9.877    -0.020      7.96
   Pb(OH)4-2       1.903e-12   1.580e-12   -11.720   -11.801    -0.081     (0)  
   PbCl2           2.005e-13   2.006e-13   -12.698   -12.698     0.000     34.97
   Pb3(OH)4+2      1.532e-13   1.272e-13   -12.815   -12.896    -0.081     (0)  
   Pb2OH+3         9.930e-15   6.528e-15   -14.003   -14.185    -0.182     (0)  
   PbCl3-          1.593e-16   1.520e-16   -15.798   -15.818    -0.020     65.96
   PbCl4-2         8.367e-20   6.944e-20   -19.077   -19.158    -0.081    101.39

------------------------------Saturation indices-------------------------------

  Phase               SI** log IAP   log K(298 K,   1 atm)

  Aragonite        -0.11     -8.45   -8.34  CaCO3
  Calcite           0.00     -8.45   -8.45  CaCO3
  Cerussite        -0.46    -13.59  -13.13  PbCO3
  CH4(g)           -1.75     -4.56   -2.80  CH4
  CO2(g)           -5.16     -6.63   -1.47  CO2
  H2(g)            -5.63     -8.73   -3.10  H2
  H2O(g)           -1.50     -0.00    1.50  H2O
  Hydrocerussite    0.00     -5.82   -5.82  Pb(OH)0.6666666667(CO3)0.6666666667
  Litharge         -2.91      9.72   12.64  PbO
  O2(g)           -72.01    -74.90   -2.89  O2
  Pb                0.00     47.17   47.17  Pb
  Pb(OH)2           1.57      9.72    8.15  Pb(OH)2

**For a gas, SI = log10(fugacity). Fugacity = pressure * phi / 1 atm.
  For ideal gases, phi = 1.


Calculating transport: 10 (mobile) cells, 2 shifts, 75 mixruns...

WARNING: Maximum iterations exceeded, 100

WARNING: Numerical method failed with this set of convergence parameters.

WARNING: Trying smaller step size, pe step size 10, 5 ... 

WARNING: Maximum iterations exceeded, 200

WARNING: Numerical method failed with this set of convergence parameters.

WARNING: Trying reduced tolerance 1e-16 ...

WARNING: Maximum iterations exceeded, 200

WARNING: Numerical method failed with this set of convergence parameters.

WARNING: Trying increased tolerance 1e-14 ...

WARNING: Maximum iterations exceeded, 200

WARNING: Numerical method failed with this set of convergence parameters.

WARNING: Trying diagonal scaling ...

WARNING: Maximum iterations exceeded, 100

WARNING: Numerical method failed with this set of convergence parameters.

WARNING: Trying smaller step size, pe step size 10, 5 ... 

WARNING: Maximum iterations exceeded, 200

WARNING: Numerical method failed with this set of convergence parameters.

WARNING: Trying reduced tolerance 1e-16 ...

WARNING: Maximum iterations exceeded, 200

WARNING: Numerical method failed with this set of convergence parameters.

WARNING: Trying increased tolerance 1e-14 ...

WARNING: Maximum iterations exceeded, 200

WARNING: Numerical method failed with this set of convergence parameters.

WARNING: Trying diagonal scaling ...

WARNING: Maximum iterations exceeded, 100

WARNING: Numerical method failed with this set of convergence parameters.

WARNING: Trying smaller step size, pe step size 10, 5 ... 

WARNING: Maximum iterations exceeded, 200

WARNING: Numerical method failed with this set of convergence parameters.

WARNING: Trying reduced tolerance 1e-16 ...

WARNING: Maximum iterations exceeded, 100

WARNING: Numerical method failed with this set of convergence parameters.

WARNING: Trying smaller step size, pe step size 10, 5 ... 

WARNING: Maximum iterations exceeded, 200

WARNING: Numerical method failed with this set of convergence parameters.

WARNING: Trying reduced tolerance 1e-16 ...

WARNING: Maximum iterations exceeded, 200

WARNING: Numerical method failed with this set of convergence parameters.

WARNING: Trying increased tolerance 1e-14 ...

WARNING: Maximum iterations exceeded, 200

WARNING: Numerical method failed with this set of convergence parameters.

WARNING: Trying diagonal scaling ...

WARNING: Maximum iterations exceeded, 100

WARNING: Numerical method failed with this set of convergence parameters.

WARNING: Trying smaller step size, pe step size 10, 5 ... 

WARNING: Maximum iterations exceeded, 200

WARNING: Numerical method failed with this set of convergence parameters.

WARNING: Trying reduced tolerance 1e-16 ...

WARNING: Maximum iterations exceeded, 200

WARNING: Numerical method failed with this set of convergence parameters.

WARNING: Trying increased tolerance 1e-14 ...

WARNING: Maximum iterations exceeded, 200

WARNING: Numerical method failed with this set of convergence parameters.

WARNING: Trying diagonal scaling ...

WARNING: Maximum iterations exceeded, 100

WARNING: Numerical method failed with this set of convergence parameters.

WARNING: Trying smaller step size, pe step size 10, 5 ... 

WARNING: Maximum iterations exceeded, 200

WARNING: Numerical method failed with this set of convergence parameters.

WARNING: Trying reduced tolerance 1e-16 ...

WARNING: Maximum iterations exceeded, 100

WARNING: Numerical method failed with this set of convergence parameters.

WARNING: Trying smaller step size, pe step size 10, 5 ... 

WARNING: Maximum iterations exceeded, 200

WARNING: Numerical method failed with this set of convergence parameters.

WARNING: Trying reduced tolerance 1e-16 ...

WARNING: Maximum iterations exceeded, 200

WARNING: Numerical method failed with this set of convergence parameters.

WARNING: Trying increased tolerance 1e-14 ...

WARNING: Maximum iterations exceeded, 200

WARNING: Numerical method failed with this set of convergence parameters.

WARNING: Trying diagonal scaling ...

WARNING: Maximum iterations exceeded, 100

WARNING: Numerical method failed with this set of convergence parameters.

WARNING: Trying smaller step size, pe step size 10, 5 ... 

WARNING: Maximum iterations exceeded, 200

WARNING: Numerical method failed with this set of convergence parameters.

WARNING: Trying reduced tolerance 1e-16 ...

WARNING: Maximum iterations exceeded, 200

WARNING: Numerical method failed with this set of convergence parameters.

WARNING: Trying increased tolerance 1e-14 ...

WARNING: Maximum iterations exceeded, 200

WARNING: Numerical method failed with this set of convergence parameters.

WARNING: Trying diagonal scaling ...

WARNING: Maximum iterations exceeded, 100

WARNING: Numerical method failed with this set of convergence parameters.

WARNING: Trying smaller step size, pe step size 10, 5 ... 

WARNING: Maximum iterations exceeded, 200

WARNING: Numerical method failed with this set of convergence parameters.

WARNING: Trying reduced tolerance 1e-16 ...

WARNING: Maximum iterations exceeded, 200

WARNING: Numerical method failed with this set of convergence parameters.

WARNING: Trying increased tolerance 1e-14 ...

WARNING: Maximum iterations exceeded, 200

WARNING: Numerical method failed with this set of convergence parameters.

WARNING: Trying diagonal scaling ...

WARNING: Maximum iterations exceeded, 100

Transport step   1. Multicomponent diffusion run  75.

Using solution 0.	Solution after simulation 3.

-----------------------------Solution composition------------------------------

	Elements           Molality       Moles

	C                 1.000e-03   1.000e-07
	Ca                9.968e-04   9.968e-08
	Cl                1.000e-03   1.000e-07

----------------------------Description of solution----------------------------

                                       pH  =   8.026      Charge balance
                                       pe  =  12.592      Adjusted to redox equilibrium
      Specific Conductance (µS/cm,  25°C)  = 223
                          Density (g/cm³)  =   0.99715
                               Volume (L)  =   0.00010
                        Viscosity (mPa s)  =   0.89113
                        Activity of water  =   1.000
                 Ionic strength (mol/kgw)  =   2.978e-03
                       Mass of water (kg)  =   1.000e-04
                 Total alkalinity (eq/kg)  =   9.935e-04
                       Total CO2 (mol/kg)  =   1.000e-03
                         Temperature (°C)  =  25.00
                  Electrical balance (eq)  =  -2.567e-20
 Percent error, 100*(Cat-|An|)/(Cat+|An|)  =  -0.00
                               Iterations  =   0
                                  Total H  = 1.110134e-02
                                  Total O  = 5.550971e-03

----------------------------Distribution of species----------------------------

                                               Log       Log       Log    mole V
   Species          Molality    Activity  Molality  Activity     Gamma   cm³/mol

   OH-             1.141e-06   1.074e-06    -5.943    -5.969    -0.026     -4.08
   H+              9.960e-09   9.425e-09    -8.002    -8.026    -0.024      0.00
   H2O             5.551e+01   9.999e-01     1.744    -0.000     0.000     18.07
C(-4)         0.000e+00
   CH4             0.000e+00   0.000e+00  -145.263  -145.263     0.000     35.46
C(4)          1.000e-03
   HCO3-           9.689e-04   9.140e-04    -3.014    -3.039    -0.025     24.60
   CO2             1.936e-05   1.937e-05    -4.713    -4.713     0.000     34.79
   CaCO3           5.985e-06   5.989e-06    -5.223    -5.223     0.000    -14.60
   CO3-2           5.745e-06   4.548e-06    -5.241    -5.342    -0.102     -4.57
   CaHCO3+         6.656e-11   6.282e-11   -10.177   -10.202    -0.025      9.69
   (CO2)2          6.096e-12   6.099e-12   -11.215   -11.215     0.000     68.75
Ca            9.968e-04
   Ca+2            9.908e-04   7.839e-04    -3.004    -3.106    -0.102    -18.07
   CaCO3           5.985e-06   5.989e-06    -5.223    -5.223     0.000    -14.60
   CaOH+           1.465e-08   1.380e-08    -7.834    -7.860    -0.026     (0)  
   CaHCO3+         6.656e-11   6.282e-11   -10.177   -10.202    -0.025      9.69
Cl            1.000e-03
   Cl-             1.000e-03   9.417e-04    -3.000    -3.026    -0.026     18.10
   HCl             3.049e-12   3.058e-12   -11.516   -11.515     0.001     20.36
H(0)          0.000e+00
   H2              0.000e+00   0.000e+00   -44.385   -44.385     0.000     14.99
O(0)          5.108e-04
   O2              2.554e-04   2.556e-04    -3.593    -3.592     0.000     30.40

------------------------------Saturation indices-------------------------------

  Phase               SI** log IAP   log K(298 K,   1 atm)

  Aragonite        -0.11     -8.45   -8.34  CaCO3
  Calcite           0.00     -8.45   -8.45  CaCO3
  CH4(g)         -142.46   -145.26   -2.80  CH4
[...]
	Boltzmann factor, exp(-psi_DL * F / RT) = 2.777e+01 (= c_DL / c_free if z is +1).

	Element       	     Moles
	C             	  1.5298e-10
	Ca            	  4.9989e-04
	Cl            	  3.7008e-08
	H             	  7.1717e-07
	O             	  7.1762e-07
	Pb            	  4.8920e-07

Sura          
	  1.000e-03  moles
	                                   Mole                     Log
	Species               Moles    Fraction    Molality    Molality

	Sura-             1.000e-03       1.000   1.001e+01       1.000

-----------------------------Solution composition------------------------------

	Elements           Molality       Moles

	C                 4.763e-07   4.758e-11
	Ca                7.229e-04   7.222e-08
	Cl                1.142e-03   1.141e-07
	Pb                4.808e-05   4.803e-09

----------------------------Description of solution----------------------------

                                       pH  =  10.432      Charge balance
                                       pe  =  -6.185      Adjusted to redox equilibrium
      Specific Conductance (µS/cm,  25°C)  = 219
                          Density (g/cm³)  =   0.99712
                               Volume (L)  =   0.00010
                        Viscosity (mPa s)  =   0.89076
                        Activity of water  =   1.000
                 Ionic strength (mol/kgw)  =   2.166e-03
                       Mass of water (kg)  =   9.990e-05
                 Total alkalinity (eq/kg)  =   3.965e-04
                       Total CO2 (mol/kg)  =   4.763e-07
                         Temperature (°C)  =  25.00
                  Electrical balance (eq)  =   3.722e-10
 Percent error, 100*(Cat-|An|)/(Cat+|An|)  =   0.13
                               Iterations  =   1 (16 overall)
                                  Total H  = 1.108996e-02
                                  Total O  = 5.545000e-03

----------------------------Distribution of species----------------------------

                                               Log       Log       Log    mole V
   Species          Molality    Activity  Molality  Activity     Gamma   cm³/mol

   OH-             2.882e-04   2.736e-04    -3.540    -3.563    -0.023     -4.09
   H+              3.881e-11   3.699e-11   -10.411   -10.432    -0.021      0.00
   H2O             5.551e+01   1.000e+00     1.744    -0.000     0.000     18.07
C(-4)         2.587e-21
   CH4             2.587e-21   2.588e-21   -20.587   -20.587     0.000     35.46
C(4)          4.763e-07
   CO3-2           1.854e-07   1.515e-07    -6.732    -6.820    -0.088     -4.61
   CaCO3           1.496e-07   1.497e-07    -6.825    -6.825     0.000    -14.60
   HCO3-           1.257e-07   1.195e-07    -6.901    -6.923    -0.022     24.58
   PbCO3           1.556e-08   1.557e-08    -7.808    -7.808     0.000     (0)  
   CO2             9.937e-12   9.940e-12   -11.003   -11.003     0.000     34.79
   Pb(CO3)2-2      7.279e-12   5.925e-12   -11.138   -11.227    -0.089     (0)  
   PbHCO3+         5.909e-13   5.613e-13   -12.228   -12.251    -0.022     (0)  
   CaHCO3+         6.479e-15   6.163e-15   -14.188   -14.210    -0.022      9.68
   (CO2)2          1.606e-24   1.606e-24   -23.794   -23.794     0.000     68.75
Ca            7.229e-04
   Ca+2            7.200e-04   5.882e-04    -3.143    -3.231    -0.088    -18.09
   CaOH+           2.778e-06   2.639e-06    -5.556    -5.579    -0.022     (0)  
   CaCO3           1.496e-07   1.497e-07    -6.825    -6.825     0.000    -14.60
   CaHCO3+         6.479e-15   6.163e-15   -14.188   -14.210    -0.022      9.68
Cl            1.142e-03
   Cl-             1.142e-03   1.084e-03    -2.942    -2.965    -0.022     18.09
   PbCl+           2.687e-10   2.552e-10    -9.571    -9.593    -0.022      7.96
   PbCl2           4.384e-13   4.386e-13   -12.358   -12.358     0.000     34.97
   HCl             1.379e-14   1.382e-14   -13.861   -13.860     0.001     20.36
   PbCl3-          3.977e-16   3.777e-16   -15.400   -15.423    -0.022     65.97
   PbCl4-2         2.408e-19   1.960e-19   -18.618   -18.708    -0.089    101.40
H(0)          4.541e-12
   H2              2.270e-12   2.272e-12   -11.644   -11.644     0.000     14.99
O(0)          0.000e+00
   O2              0.000e+00   0.000e+00   -69.075   -69.075     0.000     30.40
Pb            4.808e-05
   Pb(OH)2         3.276e-05   3.277e-05    -4.485    -4.484     0.000     (0)  
   Pb(OH)3-        1.071e-05   1.017e-05    -4.970    -4.993    -0.022     (0)  
   PbOH+           3.281e-06   3.116e-06    -5.484    -5.506    -0.022     (0)  
   Pb(OH)4-2       7.739e-07   6.299e-07    -6.111    -6.201    -0.089     (0)  
   Pb3(OH)4+2      1.788e-07   1.455e-07    -6.748    -6.837    -0.089     (0)  
   PbCO3           1.556e-08   1.557e-08    -7.808    -7.808     0.000     (0)  
   Pb+2            7.264e-09   5.913e-09    -8.139    -8.228    -0.089    -15.49
   PbCl+           2.687e-10   2.552e-10    -9.571    -9.593    -0.022      7.96
   Pb(CO3)2-2      7.279e-12   5.925e-12   -11.138   -11.227    -0.089     (0)  
   Pb2OH+3         6.555e-13   4.125e-13   -12.183   -12.385    -0.201     (0)  
   PbHCO3+         5.909e-13   5.613e-13   -12.228   -12.251    -0.022     (0)  
   PbCl2           4.384e-13   4.386e-13   -12.358   -12.358     0.000     34.97
   PbCl3-          3.977e-16   3.777e-16   -15.400   -15.423    -0.022     65.97
   PbCl4-2         2.408e-19   1.960e-19   -18.618   -18.708    -0.089    101.40

------------------------------Saturation indices-------------------------------

  Phase               SI** log IAP   log K(298 K,   1 atm)

  Aragonite        -1.71    -10.05   -8.34  CaCO3
  Calcite          -1.60    -10.05   -8.45  CaCO3
  Cerussite        -1.92    -15.05  -13.13  PbCO3
  CH4(g)          -17.79    -20.59   -2.80  CH4
  CO2(g)           -9.53    -11.00   -1.47  CO2
  H2(g)            -8.54    -11.64   -3.10  H2
  H2O(g)           -1.50     -0.00    1.50  H2O
  Hydrocerussite    0.00     -5.82   -5.82  Pb(OH)0.6666666667(CO3)0.6666666667
  Litharge         -0.00     12.64   12.64  PbO
  O2(g)           -66.18    -69.08   -2.89  O2
  Pb                0.00     47.17   47.17  Pb
  Pb(OH)2           4.49     12.64    8.15  Pb(OH)2

**For a gas, SI = log10(fugacity). Fugacity = pressure * phi / 1 atm.
  For ideal gases, phi = 1.

Using mix 9.	
Using pure phase assemblage 9.	Pure-phase assemblage after simulation 4.

Mixture 9.	

	  0.000e+00 Solution 8	Solution after simulation 4.                           
	  1.000e+00 Solution 9	Solution after simulation 4.                           
	  0.000e+00 Solution 10	Solution after simulation 4.                           

-------------------------------Phase assemblage--------------------------------

                                                      Moles in assemblage
Phase               SI  log IAP  log K(T, P)   Initial       Final       Delta

Calcite          -1.60   -10.05     -8.45    0.000e+00               0.000e+00
Cerussite        -1.92   -15.05    -13.13    0.000e+00               0.000e+00
Hydrocerussite    0.00    -5.82     -5.82    1.951e-07   1.951e-07   5.133e-12
Litharge          0.00    12.64     12.64    2.180e-09   4.118e-09   1.938e-09
Pb                0.00    47.17     47.17    1.000e+01   1.000e+01   0.000e+00

-----------------------------Solution composition------------------------------

	Elements           Molality       Moles

	C                 4.768e-07   4.768e-11
	Ca                7.216e-04   7.216e-08
	Cl                1.143e-03   1.143e-07
	Pb                4.809e-05   4.809e-09

----------------------------Description of solution----------------------------

                                       pH  =  10.432      Charge balance
                                       pe  =  -6.185      Adjusted to redox equilibrium
      Specific Conductance (µS/cm,  25°C)  = 219
                          Density (g/cm³)  =   0.99712
                               Volume (L)  =   0.00010
                        Viscosity (mPa s)  =   0.89076
                        Activity of water  =   1.000
                 Ionic strength (mol/kgw)  =   2.164e-03
                       Mass of water (kg)  =   1.000e-04
                 Total alkalinity (eq/kg)  =   3.968e-04
                       Total CO2 (mol/kg)  =   4.768e-07
                         Temperature (°C)  =  25.00
                  Electrical balance (eq)  =  -3.684e-13
 Percent error, 100*(Cat-|An|)/(Cat+|An|)  =  -0.00
                               Iterations  =   1
                                  Total H  = 1.110142e-02
                                  Total O  = 5.550729e-03

----------------------------Distribution of species----------------------------

                                               Log       Log       Log    mole V
   Species          Molality    Activity  Molality  Activity     Gamma   cm³/mol

   OH-             2.884e-04   2.739e-04    -3.540    -3.562    -0.023     -4.09
   H+              3.878e-11   3.696e-11   -10.411   -10.432    -0.021      0.00
   H2O             5.551e+01   1.000e+00     1.744    -0.000     0.000     18.07
C(-4)         2.587e-21
   CH4             2.587e-21   2.588e-21   -20.587   -20.587     0.000     35.46
C(4)          4.768e-07
   CO3-2           1.857e-07   1.518e-07    -6.731    -6.819    -0.088     -4.61
   CaCO3           1.496e-07   1.497e-07    -6.825    -6.825     0.000    -14.60
   HCO3-           1.258e-07   1.196e-07    -6.900    -6.922    -0.022     24.58
   PbCO3           1.556e-08   1.557e-08    -7.808    -7.808     0.000     (0)  
   CO2             9.937e-12   9.940e-12   -11.003   -11.003     0.000     34.79
   Pb(CO3)2-2      7.292e-12   5.936e-12   -11.137   -11.227    -0.089     (0)  
   PbHCO3+         5.904e-13   5.608e-13   -12.229   -12.251    -0.022     (0)  
   CaHCO3+         6.474e-15   6.158e-15   -14.189   -14.211    -0.022      9.68
   (CO2)2          1.606e-24   1.606e-24   -23.794   -23.794     0.000     68.75
Ca            7.216e-04
   Ca+2            7.187e-04   5.871e-04    -3.143    -3.231    -0.088    -18.09
   CaOH+           2.776e-06   2.636e-06    -5.557    -5.579    -0.022     (0)  
   CaCO3           1.496e-07   1.497e-07    -6.825    -6.825     0.000    -14.60
   CaHCO3+         6.474e-15   6.158e-15   -14.189   -14.211    -0.022      9.68
Cl            1.143e-03
   Cl-             1.143e-03   1.085e-03    -2.942    -2.965    -0.022     18.09
   PbCl+           2.684e-10   2.549e-10    -9.571    -9.594    -0.022      7.96
   PbCl2           4.382e-13   4.384e-13   -12.358   -12.358     0.000     34.97
   HCl             1.378e-14   1.381e-14   -13.861   -13.860     0.001     20.36
   PbCl3-          3.978e-16   3.779e-16   -15.400   -15.423    -0.022     65.97
   PbCl4-2         2.411e-19   1.962e-19   -18.618   -18.707    -0.089    101.40
H(0)          4.541e-12
   H2              2.270e-12   2.272e-12   -11.644   -11.644     0.000     14.99
O(0)          0.000e+00
   O2              0.000e+00   0.000e+00   -69.075   -69.075     0.000     30.40
Pb            4.809e-05
   Pb(OH)2         3.276e-05   3.277e-05    -4.485    -4.484     0.000     (0)  
   Pb(OH)3-        1.072e-05   1.018e-05    -4.970    -4.992    -0.022     (0)  
   PbOH+           3.278e-06   3.114e-06    -5.484    -5.507    -0.022     (0)  
   Pb(OH)4-2       7.753e-07   6.311e-07    -6.111    -6.200    -0.089     (0)  
   Pb3(OH)4+2      1.784e-07   1.452e-07    -6.749    -6.838    -0.089     (0)  
   PbCO3           1.556e-08   1.557e-08    -7.808    -7.808     0.000     (0)  
   Pb+2            7.250e-09   5.902e-09    -8.140    -8.229    -0.089    -15.49
   PbCl+           2.684e-10   2.549e-10    -9.571    -9.594    -0.022      7.96
   Pb(CO3)2-2      7.292e-12   5.936e-12   -11.137   -11.227    -0.089     (0)  
   Pb2OH+3         6.536e-13   4.114e-13   -12.185   -12.386    -0.201     (0)  
   PbHCO3+         5.904e-13   5.608e-13   -12.229   -12.251    -0.022     (0)  
   PbCl2           4.382e-13   4.384e-13   -12.358   -12.358     0.000     34.97
   PbCl3-          3.978e-16   3.779e-16   -15.400   -15.423    -0.022     65.97
   PbCl4-2         2.411e-19   1.962e-19   -18.618   -18.707    -0.089    101.40

------------------------------Saturation indices-------------------------------

  Phase               SI** log IAP   log K(298 K,   1 atm)

  Aragonite        -1.71    -10.05   -8.34  CaCO3
  Calcite          -1.60    -10.05   -8.45  CaCO3
  Cerussite        -1.92    -15.05  -13.13  PbCO3
  CH4(g)          -17.79    -20.59   -2.80  CH4
  CO2(g)           -9.53    -11.00   -1.47  CO2
  H2(g)            -8.54    -11.64   -3.10  H2
  H2O(g)           -1.50     -0.00    1.50  H2O
  Hydrocerussite    0.00     -5.82   -5.82  Pb(OH)0.6666666667(CO3)0.6666666667
  Litharge          0.00     12.64   12.64  PbO
  O2(g)           -66.18    -69.08   -2.89  O2
  Pb                0.00     47.17   47.17  Pb
  Pb(OH)2           4.49     12.64    8.15  Pb(OH)2

**For a gas, SI = log10(fugacity). Fugacity = pressure * phi / 1 atm.
  For ideal gases, phi = 1.

Using mix 10.	
Using pure phase assemblage 10.	Pure-phase assemblage after simulation 4.

Mixture 10.	

	  0.000e+00 Solution 9	Solution after simulation 4.                           
	  1.000e+00 Solution 10	Solution after simulation 4.                           
	  0.000e+00 Solution 11	                                                       

-------------------------------Phase assemblage--------------------------------

                                                      Moles in assemblage
Phase               SI  log IAP  log K(T, P)   Initial       Final       Delta

Calcite          -1.60   -10.05     -8.45    0.000e+00               0.000e+00
Cerussite        -1.92   -15.05    -13.13    0.000e+00               0.000e+00
Hydrocerussite   -0.00    -5.82     -5.82    9.933e-08   9.933e-08   4.482e-12
Litharge          0.00    12.64     12.64    9.001e-13   2.879e-11   2.789e-11
Pb                0.00    47.17     47.17    1.000e+01   1.000e+01   0.000e+00

-----------------------------Solution composition------------------------------

	Elements           Molality       Moles

	C                 4.768e-07   4.768e-11
	Ca                7.215e-04   7.216e-08
	Cl                1.142e-03   1.142e-07
	Pb                4.809e-05   4.809e-09

----------------------------Description of solution----------------------------

                                       pH  =  10.432      Charge balance
                                       pe  =  -6.185      Adjusted to redox equilibrium
      Specific Conductance (µS/cm,  25°C)  = 219
                          Density (g/cm³)  =   0.99712
                               Volume (L)  =   0.00010
                        Viscosity (mPa s)  =   0.89076
                        Activity of water  =   1.000
                 Ionic strength (mol/kgw)  =   2.163e-03
                       Mass of water (kg)  =   1.000e-04
                 Total alkalinity (eq/kg)  =   3.968e-04
                       Total CO2 (mol/kg)  =   4.768e-07
                         Temperature (°C)  =  25.00
                  Electrical balance (eq)  =  -1.865e-13
 Percent error, 100*(Cat-|An|)/(Cat+|An|)  =  -0.00
                               Iterations  =   1
                                  Total H  = 1.110134e-02
                                  Total O  = 5.550690e-03

----------------------------Distribution of species----------------------------

                                               Log       Log       Log    mole V
   Species          Molality    Activity  Molality  Activity     Gamma   cm³/mol

   OH-             2.884e-04   2.739e-04    -3.540    -3.562    -0.023     -4.09
   H+              3.878e-11   3.696e-11   -10.411   -10.432    -0.021      0.00
   H2O             5.551e+01   1.000e+00     1.744    -0.000     0.000     18.07
C(-4)         2.587e-21
   CH4             2.587e-21   2.588e-21   -20.587   -20.587     0.000     35.46
C(4)          4.768e-07
   CO3-2           1.857e-07   1.518e-07    -6.731    -6.819    -0.088     -4.61
   CaCO3           1.496e-07   1.497e-07    -6.825    -6.825     0.000    -14.60
   HCO3-           1.258e-07   1.196e-07    -6.900    -6.922    -0.022     24.58
   PbCO3           1.556e-08   1.557e-08    -7.808    -7.808     0.000     (0)  
   CO2             9.937e-12   9.940e-12   -11.003   -11.003     0.000     34.79
   Pb(CO3)2-2      7.292e-12   5.936e-12   -11.137   -11.227    -0.089     (0)  
   PbHCO3+         5.904e-13   5.608e-13   -12.229   -12.251    -0.022     (0)  
   CaHCO3+         6.473e-15   6.157e-15   -14.189   -14.211    -0.022      9.68
   (CO2)2          1.606e-24   1.606e-24   -23.794   -23.794     0.000     68.75
Ca            7.215e-04
   Ca+2            7.186e-04   5.871e-04    -3.143    -3.231    -0.088    -18.09
   CaOH+           2.775e-06   2.636e-06    -5.557    -5.579    -0.022     (0)  
   CaCO3           1.496e-07   1.497e-07    -6.825    -6.825     0.000    -14.60
   CaHCO3+         6.473e-15   6.157e-15   -14.189   -14.211    -0.022      9.68
Cl            1.142e-03
   Cl-             1.142e-03   1.085e-03    -2.942    -2.965    -0.022     18.09
   PbCl+           2.684e-10   2.549e-10    -9.571    -9.594    -0.022      7.96
   PbCl2           4.381e-13   4.383e-13   -12.358   -12.358     0.000     34.97
   HCl             1.378e-14   1.381e-14   -13.861   -13.860     0.001     20.36
   PbCl3-          3.977e-16   3.777e-16   -15.400   -15.423    -0.022     65.97
   PbCl4-2         2.410e-19   1.962e-19   -18.618   -18.707    -0.089    101.40
H(0)          4.541e-12
   H2              2.270e-12   2.272e-12   -11.644   -11.644     0.000     14.99
O(0)          0.000e+00
   O2              0.000e+00   0.000e+00   -69.075   -69.075     0.000     30.40
Pb            4.809e-05
   Pb(OH)2         3.276e-05   3.277e-05    -4.485    -4.484     0.000     (0)  
   Pb(OH)3-        1.072e-05   1.018e-05    -4.970    -4.992    -0.022     (0)  
   PbOH+           3.278e-06   3.114e-06    -5.484    -5.507    -0.022     (0)  
   Pb(OH)4-2       7.753e-07   6.311e-07    -6.111    -6.200    -0.089     (0)  
   Pb3(OH)4+2      1.784e-07   1.452e-07    -6.749    -6.838    -0.089     (0)  
   PbCO3           1.556e-08   1.557e-08    -7.808    -7.808     0.000     (0)  
   Pb+2            7.250e-09   5.902e-09    -8.140    -8.229    -0.089    -15.49
   PbCl+           2.684e-10   2.549e-10    -9.571    -9.594    -0.022      7.96
   Pb(CO3)2-2      7.292e-12   5.936e-12   -11.137   -11.227    -0.089     (0)  
   Pb2OH+3         6.535e-13   4.114e-13   -12.185   -12.386    -0.201     (0)  
   PbHCO3+         5.904e-13   5.608e-13   -12.229   -12.251    -0.022     (0)  
   PbCl2           4.381e-13   4.383e-13   -12.358   -12.358     0.000     34.97
   PbCl3-          3.977e-16   3.777e-16   -15.400   -15.423    -0.022     65.97
   PbCl4-2         2.410e-19   1.962e-19   -18.618   -18.707    -0.089    101.40

------------------------------Saturation indices-------------------------------

  Phase               SI** log IAP   log K(298 K,   1 atm)

  Aragonite        -1.71    -10.05   -8.34  CaCO3
  Calcite          -1.60    -10.05   -8.45  CaCO3
  Cerussite        -1.92    -15.05  -13.13  PbCO3
  CH4(g)          -17.79    -20.59   -2.80  CH4
  CO2(g)           -9.53    -11.00   -1.47  CO2
  H2(g)            -8.54    -11.64   -3.10  H2
  H2O(g)           -1.50     -0.00    1.50  H2O
  Hydrocerussite   -0.00     -5.82   -5.82  Pb(OH)0.6666666667(CO3)0.6666666667
  Litharge          0.00     12.64   12.64  PbO
  O2(g)           -66.18    -69.08   -2.89  O2
  Pb                0.00     47.17   47.17  Pb
  Pb(OH)2           4.49     12.64    8.15  Pb(OH)2

**For a gas, SI = log10(fugacity). Fugacity = pressure * phi / 1 atm.
  For ideal gases, phi = 1.

------------------
End of simulation.
------------------

------------------------------------
Reading input data for simulation 5.
------------------------------------

