WARNING: Database file from DATABASE keyword is used; command line argument ignored.
   Input file: transport
  Output file: transport.out
Database file: ../database/phreeqc.dat

------------------
Reading data base.
------------------

	SOLUTION_MASTER_SPECIES
	SOLUTION_SPECIES
	PHASES
	GAS_BINARY_PARAMETERS
	EXCHANGE_MASTER_SPECIES
	EXCHANGE_SPECIES
	SURFACE_MASTER_SPECIES
	SURFACE_SPECIES
	MEAN_GAMMAS
	RATES
	END
------------------------------------
Reading input data for simulation 1.
------------------------------------

	DATABASE ../database/phreeqc.dat
	SELECTED_OUTPUT 101
	    file                 transport_101.sel
	USER_PUNCH 101
	    headings Mu SC
	    start
	10 PUNCH STR_F$(MU, 20, 12)
	20 PUNCH STR_F$(SC, 20, 10)
	    end
	knobs
		logfile
	PRINT
		status false
	SOLUTION 0
		ph	3.3
		temp	25
		units mmol/l
		Ca	11.6
		Mg	15.8
		Na	9.4
		K	0.2
		Fe	52.4
		Mn	1.34
		Al	10.5
		Cu	2.4
		Zn	0.33
		S(6)	100 	charge
		Cl	9.5
		C(4)	0.1	CO2(g)  -3.5
	SOLUTION 1-5
		ph	7.19
		temp	25
		units mmol/l
		O(0)	0.22
		Ca	1.2	charge
		Mg	0.37
		Na	0.96
		K	0.03
		Fe	3.5e-7	mol/l
		Mn	1.0e-7	mol/l
		Al	1.8e-6  mol/l
		Cu	1.5e-7	mol/l
		Zn	2.5e-7	mol/l
		S(6)	0.7
		Cl	0.48
		Alkalinity	2.3
	SURFACE 1-5
		SurfOH	0.15	600.	65.
	PURE_PHASES 1-5
		MnO2		0.0	0.045
		Fe(OH)3		0.0	0.73
		Calcite		0.0	0.14
		Gypsum 		0.0	0.0
		Al(OH)3(a)	0.0	0.0
		AlOHSO4		0.0	0.0
	USE PURE_PHASES none
	USE SURFACE none
	ADVECTION
		cells		5
		shifts		25
		print_frequency	5
	SURFACE_MASTER_SPECIES
		Surf	SurfOH
	SURFACE_SPECIES
		SurfOH = SurfOH
		log_k	0.0
		SurfOH  + H+ = SurfOH2+
		log_k	7.29
		SurfOH = SurfO- + H+
		log_k	-8.93
		SurfOH + Cu+2 = SurfOCu+ + H+
		log_k	0.6
		SurfOH + Zn+2 = SurfOZn+ + H+
		log_k	-1.99
		SurfOH + Mn+2 = SurfOMn+ + H+
		log_k	-2.6
	PHASES
		Fe(OH)3
		Fe(OH)3 + 3 H+ = Fe+3 + 3 H2O                                                 
		log_k	4.891
		MnO2
		MnO2 + 4 H+ + 2 e- = Mn+2 + 2 H2O                                          
		log_k		41.380
		delta_h	-65.110 kcal
		Al(OH)3(a)
		Al(OH)3 + 3H+ = Al+3 + 3H2O 
		log_k		10.8
		delta_h	-26.5 kcal
		AlOHSO4
		AlOHSO4 + H+ = Al+3 + SO4-2 + H2O 
		log_k	-2.2
	END
-------------------------------------------
Beginning of initial solution calculations.
-------------------------------------------

Initial solution 0.	

-----------------------------Solution composition------------------------------

	Elements           Molality       Moles

	Al                1.065e-02   1.065e-02
	C(4)              1.045e-05   1.045e-05  Equilibrium with CO2(g)
	Ca                1.177e-02   1.177e-02
	Cl                9.640e-03   9.640e-03
	Cu                2.435e-03   2.435e-03
	Fe                5.317e-02   5.317e-02
	K                 2.029e-04   2.029e-04
	Mg                1.603e-02   1.603e-02
	Mn                1.360e-03   1.360e-03
	Na                9.538e-03   9.538e-03
	S(6)              1.018e-01   1.018e-01  Charge balance
	Zn                3.348e-04   3.348e-04

----------------------------Description of solution----------------------------

                                       pH  =   3.300    
                                       pe  =   4.000    
      Specific Conductance (µS/cm,  25°C)  = 11032
                          Density (g/cm³)  =   1.01096
                               Volume (L)  =   1.00371
                        Viscosity (mPa s)  =   0.91378
                        Activity of water  =   0.997
                 Ionic strength (mol/kgw)  =   2.126e-01
                       Mass of water (kg)  =   1.000e+00
                 Total alkalinity (eq/kg)  =  -1.663e-03
                       Total CO2 (mol/kg)  =   1.045e-05
                         Temperature (°C)  =  25.00
                  Electrical balance (eq)  =   2.075e-14
 Percent error, 100*(Cat-|An|)/(Cat+|An|)  =   0.00
                               Iterations  =   9
                                  Total H  = 1.110141e+02
                                  Total O  = 5.591339e+01

----------------------------Distribution of species----------------------------

                                               Log       Log       Log    mole V
   Species          Molality    Activity  Molality  Activity     Gamma   cm³/mol

   H+              6.302e-04   5.012e-04    -3.200    -3.300    -0.100      0.00
   OH-             2.869e-11   2.014e-11   -10.542   -10.696    -0.154     -3.47
   H2O             5.551e+01   9.972e-01     1.744    -0.001     0.000     18.07
Al            1.065e-02
   AlSO4+          6.789e-03   4.920e-03    -2.168    -2.308    -0.140     (0)  
   Al(SO4)2-       2.974e-03   2.155e-03    -2.527    -2.666    -0.140     (0)  
   Al+3            8.830e-04   1.123e-04    -3.054    -3.950    -0.896    -40.80
   AlOH+2          7.306e-06   2.219e-06    -5.136    -5.654    -0.517    -26.92
   AlHSO4+2        7.135e-07   2.186e-07    -6.147    -6.660    -0.514     (0)  
   Al(OH)2+        4.662e-08   3.461e-08    -7.331    -7.461    -0.129     (0)  
   Al(OH)3         9.662e-12   1.015e-11   -11.015   -10.994     0.021     (0)  
   Al(OH)4-        5.250e-14   3.805e-14   -13.280   -13.420    -0.140     (0)  
C(4)          1.045e-05
   CO2             1.042e-05   1.076e-05    -4.982    -4.968     0.014     34.79
   HCO3-           1.278e-08   9.523e-09    -7.894    -8.021    -0.128     26.01
   FeHCO3+         1.242e-08   9.241e-09    -7.906    -8.034    -0.128     (0)  
   CuHCO3+         2.283e-09   1.698e-09    -8.642    -8.770    -0.128     (0)  
   MnHCO3+         4.465e-10   3.281e-10    -9.350    -9.484    -0.134     (0)  
   MgHCO3+         3.731e-10   2.663e-10    -9.428    -9.575    -0.146      5.72
   ZnHCO3+         9.187e-11   6.835e-11   -10.037   -10.165    -0.128     (0)  
   NaHCO3          2.767e-11   2.979e-11   -10.558   -10.526     0.032     17.66
   (CO2)2          1.823e-12   1.882e-12   -11.739   -11.725     0.014     68.75
   CuCO3           1.621e-12   1.703e-12   -11.790   -11.769     0.021     (0)  
   KHCO3           4.913e-13   5.160e-13   -12.309   -12.287     0.021     21.42
   FeCO3           1.975e-13   2.074e-13   -12.704   -12.683     0.021     (0)  
   MnCO3           2.606e-14   2.736e-14   -13.584   -13.563     0.021     (0)  
   ZnCO3           9.652e-15   1.014e-14   -14.015   -13.994     0.021     (0)  
   CaCO3           3.312e-15   3.478e-15   -14.480   -14.459     0.021    -14.60
   CO3-2           2.933e-15   8.910e-16   -14.533   -15.050    -0.517     -2.53
   CaHCO3+         2.576e-15   1.940e-15   -14.589   -14.712    -0.123      9.88
   MgCO3           1.935e-15   2.032e-15   -14.713   -14.692     0.021    -17.09
   Cu(CO3)2-2      6.234e-24   1.910e-24   -23.205   -23.719    -0.514     (0)  
   Zn(CO3)2-2      6.302e-25   1.931e-25   -24.201   -24.714    -0.514     (0)  
Ca            1.177e-02
   Ca+2            7.351e-03   2.324e-03    -2.134    -2.634    -0.500    -17.19
   CaSO4           4.394e-03   4.490e-03    -2.357    -2.348     0.009      7.22
   CaHSO4+         2.535e-05   1.886e-05    -4.596    -4.724    -0.128     (0)  
   CaOH+           1.031e-12   7.673e-13   -11.987   -12.115    -0.128     (0)  
   CaCO3           3.312e-15   3.478e-15   -14.480   -14.459     0.021    -14.60
   CaHCO3+         2.576e-15   1.940e-15   -14.589   -14.712    -0.123      9.88
Cl            9.640e-03
   Cl-             8.827e-03   6.276e-03    -2.054    -2.202    -0.148     18.47
   CuCl2-          3.259e-04   2.326e-04    -3.487    -3.633    -0.146     (0)  
   FeCl+           1.130e-04   8.407e-05    -3.947    -4.075    -0.128     (0)  
   MnCl+           1.345e-05   9.884e-06    -4.871    -5.005    -0.134     -2.87
   CuCl+           8.421e-06   6.011e-06    -5.075    -5.221    -0.146      1.16
   CuCl3-2         7.936e-06   2.314e-06    -5.100    -5.636    -0.535     (0)  
   ZnCl+           1.349e-06   9.631e-07    -5.870    -6.016    -0.146    -14.41
   HCl             8.798e-07   1.084e-06    -6.056    -5.965     0.090     20.36
   MnCl2           2.578e-08   2.708e-08    -7.589    -7.567     0.021     85.89
   CuCl2           1.929e-08   2.026e-08    -7.715    -7.693     0.021     31.02
   ZnCl2           6.027e-09   6.329e-09    -8.220    -8.199     0.021    102.03
   MnCl3-          6.370e-11   4.681e-11   -10.196   -10.330    -0.134     44.29
   ZnCl3-          6.244e-11   4.457e-11   -10.205   -10.351    -0.146     15.74
   ZnOHCl          2.245e-11   2.357e-11   -10.649   -10.628     0.021     (0)  
   FeCl+2          6.025e-12   1.757e-12   -11.220   -11.755    -0.535     (0)  
   CuCl3-          6.320e-13   4.511e-13   -12.199   -12.346    -0.146     (0)  
   ZnCl4-2         4.808e-13   1.402e-13   -12.318   -12.853    -0.535    147.47
   FeCl2+          6.701e-14   4.924e-14   -13.174   -13.308    -0.134     (0)  
   CuCl4-2         4.867e-17   1.419e-17   -16.313   -16.848    -0.535     (0)  
   FeCl3           2.943e-17   3.090e-17   -16.531   -16.510     0.021     (0)  
Cu(1)         3.615e-04
   CuCl2-          3.259e-04   2.326e-04    -3.487    -3.633    -0.146     (0)  
   Cu+             2.766e-05   1.868e-05    -4.558    -4.729    -0.171     (0)  
   CuCl3-2         7.936e-06   2.314e-06    -5.100    -5.636    -0.535     (0)  
Cu(2)         2.074e-03
   Cu+2            1.107e-03   3.558e-04    -2.956    -3.449    -0.493    -25.74
   CuSO4           9.585e-04   1.007e-03    -3.018    -2.997     0.021     13.09
   CuCl+           8.421e-06   6.011e-06    -5.075    -5.221    -0.146      1.16
   CuCl2           1.929e-08   2.026e-08    -7.715    -7.693     0.021     31.02
   CuOH+           9.920e-09   7.080e-09    -8.004    -8.150    -0.146     (0)  
   CuHCO3+         2.283e-09   1.698e-09    -8.642    -8.770    -0.128     (0)  
   Cu2(OH)2+2      7.159e-11   2.194e-11   -10.145   -10.659    -0.514     (0)  
   Cu(OH)2         2.803e-11   2.943e-11   -10.552   -10.531     0.021     (0)  
   CuCO3           1.621e-12   1.703e-12   -11.790   -11.769     0.021     (0)  
   CuCl3-          6.320e-13   4.511e-13   -12.199   -12.346    -0.146     (0)  
   CuCl4-2         4.867e-17   1.419e-17   -16.313   -16.848    -0.535     (0)  
   Cu(OH)3-        4.743e-21   3.529e-21   -20.324   -20.452    -0.128     (0)  
   Cu(CO3)2-2      6.234e-24   1.910e-24   -23.205   -23.719    -0.514     (0)  
   Cu(OH)4-2       4.572e-30   1.401e-30   -29.340   -29.854    -0.514     (0)  
Fe(2)         5.317e-02
   Fe+2            3.018e-02   9.704e-03    -1.520    -2.013    -0.493    -21.23
   FeSO4           2.277e-02   2.391e-02    -1.643    -1.621     0.021     30.28
   FeCl+           1.130e-04   8.407e-05    -3.947    -4.075    -0.128     (0)  
   FeHSO4+         1.059e-04   7.877e-05    -3.975    -4.104    -0.128     (0)  
   FeHCO3+         1.242e-08   9.241e-09    -7.906    -8.034    -0.128     (0)  
   FeOH+           8.310e-09   6.106e-09    -8.080    -8.214    -0.134     (0)  
   FeCO3           1.975e-13   2.074e-13   -12.704   -12.683     0.021     (0)  
   Fe(OH)2         9.847e-17   1.034e-16   -16.007   -15.985     0.021     (0)  
   Fe(OH)3-        1.040e-23   7.644e-24   -22.983   -23.117    -0.134     (0)  
Fe(3)         3.089e-09
   FeSO4+          1.916e-09   1.408e-09    -8.718    -8.851    -0.134     (0)  
   Fe(SO4)2-       5.736e-10   4.267e-10    -9.241    -9.370    -0.128     (0)  
   FeOH+2          4.084e-10   1.191e-10    -9.389    -9.924    -0.535     (0)  
   Fe(OH)2+        1.057e-10   7.844e-11    -9.976   -10.105    -0.129     (0)  
   Fe+3            7.288e-11   9.268e-12   -10.137   -11.033    -0.896     (0)  
   FeHSO4+2        6.166e-12   1.889e-12   -11.210   -11.724    -0.514     (0)  
   FeCl+2          6.025e-12   1.757e-12   -11.220   -11.755    -0.535     (0)  
   FeCl2+          6.701e-14   4.924e-14   -13.174   -13.308    -0.134     (0)  
   Fe(OH)3         1.915e-14   2.011e-14   -13.718   -13.697     0.021     (0)  
   Fe2(OH)2+4      4.328e-17   3.815e-19   -16.364   -18.418    -2.055     (0)  
   FeCl3           2.943e-17   3.090e-17   -16.531   -16.510     0.021     (0)  
   Fe(OH)4-        4.914e-20   3.648e-20   -19.309   -19.438    -0.129     (0)  
   Fe3(OH)4+5      1.015e-23   6.253e-27   -22.993   -26.204    -3.211     (0)  
H(0)          3.378e-18
   H2              1.689e-18   1.778e-18   -17.772   -17.750     0.022     14.99
K             2.029e-04
   K+              1.716e-04   1.213e-04    -3.766    -3.916    -0.151      9.35
   KSO4-           3.139e-05   2.557e-05    -4.503    -4.592    -0.089     28.86
   KHCO3           4.913e-13   5.160e-13   -12.309   -12.287     0.021     21.42
Mg            1.603e-02
   MgSO4           7.862e-03   8.670e-03    -2.104    -2.062     0.043     -0.40
   Mg+2            7.064e-03   2.390e-03    -2.151    -2.622    -0.471    -20.90
   Mg(SO4)2-2      1.106e-03   3.957e-04    -2.956    -3.403    -0.447     45.25
   MgHCO3+         3.731e-10   2.663e-10    -9.428    -9.575    -0.146      5.72
   MgOH+           2.268e-11   1.727e-11   -10.644   -10.763    -0.118     (0)  
   MgCO3           1.935e-15   2.032e-15   -14.713   -14.692     0.021    -17.09
Mn(2)         1.360e-03
   Mn+2            1.202e-03   3.866e-04    -2.920    -3.413    -0.493    -17.49
   MnSO4           1.438e-04   1.370e-04    -3.842    -3.863    -0.021     17.15
   MnCl+           1.345e-05   9.884e-06    -4.871    -5.005    -0.134     -2.87
   MnCl2           2.578e-08   2.708e-08    -7.589    -7.567     0.021     85.89
   MnHCO3+         4.465e-10   3.281e-10    -9.350    -9.484    -0.134     (0)  
   MnCl3-          6.370e-11   4.681e-11   -10.196   -10.330    -0.134     44.29
   MnOH+           2.691e-11   1.977e-11   -10.570   -10.704    -0.134     (0)  
   MnCO3           2.606e-14   2.736e-14   -13.584   -13.563     0.021     (0)  
   Mn(OH)3-        6.568e-29   4.826e-29   -28.183   -28.316    -0.134     (0)  
Mn(3)         9.394e-25
   Mn+3            9.394e-25   1.195e-25   -24.027   -24.923    -0.896     (0)  
Na            9.538e-03
   Na+             8.497e-03   6.329e-03    -2.071    -2.199    -0.128     -0.92
   NaSO4-          1.041e-03   7.703e-04    -2.982    -3.113    -0.131     19.27
   Na2SO4          2.276e-09   2.377e-09    -8.643    -8.624     0.019     47.96
   NaHCO3          2.767e-11   2.979e-11   -10.558   -10.526     0.032     17.66
O(0)          0.000e+00
   O2              0.000e+00   0.000e+00   -56.886   -56.865     0.021     30.40
S(6)          1.018e-01
   SO4-2           4.846e-02   1.385e-02    -1.315    -1.858    -0.544     15.59
   FeSO4           2.277e-02   2.391e-02    -1.643    -1.621     0.021     30.28
   MgSO4           7.862e-03   8.670e-03    -2.104    -2.062     0.043     -0.40
   AlSO4+          6.789e-03   4.920e-03    -2.168    -2.308    -0.140     (0)  
   CaSO4           4.394e-03   4.490e-03    -2.357    -2.348     0.009      7.22
   Al(SO4)2-       2.974e-03   2.155e-03    -2.527    -2.666    -0.140     (0)  
   Mg(SO4)2-2      1.106e-03   3.957e-04    -2.956    -3.403    -0.447     45.25
   NaSO4-          1.041e-03   7.703e-04    -2.982    -3.113    -0.131     19.27
   CuSO4           9.585e-04   1.007e-03    -3.018    -2.997     0.021     13.09
   HSO4-           9.074e-04   6.751e-04    -3.042    -3.171    -0.128     40.66
   MnSO4           1.438e-04   1.370e-04    -3.842    -3.863    -0.021     17.15
   ZnSO4           1.369e-04   1.437e-04    -3.864    -3.842     0.021      6.48
   FeHSO4+         1.059e-04   7.877e-05    -3.975    -4.104    -0.128     (0)  
   KSO4-           3.139e-05   2.557e-05    -4.503    -4.592    -0.089     28.86
   CaHSO4+         2.535e-05   1.886e-05    -4.596    -4.724    -0.128     (0)  
   Zn(SO4)2-2      1.075e-06   1.546e-07    -5.969    -6.811    -0.842     45.30
   AlHSO4+2        7.135e-07   2.186e-07    -6.147    -6.660    -0.514     (0)  
   Na2SO4          2.276e-09   2.377e-09    -8.643    -8.624     0.019     47.96
   FeSO4+          1.916e-09   1.408e-09    -8.718    -8.851    -0.134     (0)  
   Fe(SO4)2-       5.736e-10   4.267e-10    -9.241    -9.370    -0.128     (0)  
   FeHSO4+2        6.166e-12   1.889e-12   -11.210   -11.724    -0.514     (0)  
Zn            3.348e-04
   Zn+2            1.955e-04   5.701e-05    -3.709    -4.244    -0.535    -24.47
   ZnSO4           1.369e-04   1.437e-04    -3.864    -3.842     0.021      6.48
   ZnCl+           1.349e-06   9.631e-07    -5.870    -6.016    -0.146    -14.41
   Zn(SO4)2-2      1.075e-06   1.546e-07    -5.969    -6.811    -0.842     45.30
   ZnCl2           6.027e-09   6.329e-09    -8.220    -8.199     0.021    102.03
   ZnOH+           1.672e-10   1.244e-10    -9.777    -9.905    -0.128     (0)  
   ZnHCO3+         9.187e-11   6.835e-11   -10.037   -10.165    -0.128     (0)  
   ZnCl3-          6.244e-11   4.457e-11   -10.205   -10.351    -0.146     15.74
   ZnOHCl          2.245e-11   2.357e-11   -10.649   -10.628     0.021     (0)  
   ZnCl4-2         4.808e-13   1.402e-13   -12.318   -12.853    -0.535    147.47
   ZnCO3           9.652e-15   1.014e-14   -14.015   -13.994     0.021     (0)  
   Zn(OH)2         2.706e-15   2.841e-15   -14.568   -14.546     0.021     (0)  
   Zn(OH)3-        2.403e-23   1.788e-23   -22.619   -22.748    -0.128     (0)  
   Zn(CO3)2-2      6.302e-25   1.931e-25   -24.201   -24.714    -0.514     (0)  
   Zn(OH)4-2       1.840e-32   5.638e-33   -31.735   -32.249    -0.514     (0)  

------------------------------Saturation indices-------------------------------

  Phase               SI** log IAP   log K(298 K,   1 atm)

  Al(OH)3(a)       -4.85      5.95   10.80  Al(OH)3
  AlOHSO4          -0.31     -2.51   -2.20  AlOHSO4
  Alunite           1.71      0.31   -1.40  KAl3(SO4)2(OH)6
  Anhydrite        -0.18     -4.49   -4.31  CaSO4
  Aragonite        -9.35    -17.68   -8.34  CaCO3
  Arcanite         -7.81     -9.69   -1.88  K2SO4
  Calcite          -9.24    -17.68   -8.45  CaCO3
  CO2(g)           -3.50     -4.97   -1.47  CO2	 Pressure   0.0 atm, phi 1.000
  Dolomite        -18.27    -35.36  -17.08  CaMg(CO3)2
  Epsomite         -2.75     -4.49   -1.74  MgSO4:7H2O
  Fe(OH)3          -6.03     -1.14    4.89  Fe(OH)3
  Fe(OH)3(a)       -6.03     -1.14    4.89  Fe(OH)3
  Gibbsite         -2.16      5.95    8.11  Al(OH)3
  Goethite         -0.14     -1.14   -1.00  FeOOH
  Gypsum            0.05     -4.49   -4.55  CaSO4:2H2O
  H2(g)           -14.65    -17.75   -3.10  H2
  H2O(g)           -1.50     -0.00    1.50  H2O
  Halite           -5.97     -4.40    1.57  NaCl
  Hausmannite     -36.87     24.16   61.03  Mn3O4
  Hematite          1.74     -2.27   -4.01  Fe2O3
  Hexahydrite      -2.92     -4.49   -1.57  MgSO4:6H2O
  Jarosite-K      -11.73    -20.94   -9.21  KFe3(SO4)2(OH)6
  Kieserite        -3.32     -4.48   -1.16  MgSO4:H2O
  Manganite       -14.86     10.48   25.34  MnOOH
  Melanterite      -1.67     -3.88   -2.21  FeSO4:7H2O
  Mirabilite       -5.56     -6.27   -0.71  Na2SO4:10H2O
  MnO2            -23.60     17.78   41.38  MnO2
  O2(g)           -53.97    -56.86   -2.89  O2
  Pyrochroite     -12.02      3.18   15.20  Mn(OH)2
  Pyrolusite      -23.60     17.78   41.38  MnO2:H2O
  Rhodochrosite    -7.33    -18.46  -11.13  MnCO3
  Siderite         -6.17    -17.06  -10.89  FeCO3
  Smithsonite      -9.29    -19.29  -10.00  ZnCO3
  Sylvite          -7.02     -6.12    0.90  KCl
  Thenardite       -6.91     -6.26    0.65  Na2SO4
  Zn(OH)2(e)       -9.15      2.35   11.50  Zn(OH)2

**For a gas, SI = log10(fugacity). Fugacity = pressure * phi / 1 atm.
  For ideal gases, phi = 1.

Initial solution 1.	

-----------------------------Solution composition------------------------------

	Elements           Molality       Moles

	Al                1.801e-06   1.801e-06
	Alkalinity        2.301e-03   2.301e-03
	Ca                1.222e-03   1.222e-03  Charge balance
	Cl                4.801e-04   4.801e-04
	Cu                1.500e-07   1.500e-07
	Fe                3.501e-07   3.501e-07
	K                 3.001e-05   3.001e-05
	Mg                3.701e-04   3.701e-04
	Mn                1.000e-07   1.000e-07
	Na                9.603e-04   9.603e-04
	O(0)              2.201e-04   2.201e-04
	S(6)              7.002e-04   7.002e-04
	Zn                2.501e-07   2.501e-07

----------------------------Description of solution----------------------------

                                       pH  =   7.190    
                                       pe  =   4.000    
      Specific Conductance (µS/cm,  25°C)  = 444
                          Density (g/cm³)  =   0.99731
                               Volume (L)  =   1.00302
                        Viscosity (mPa s)  =   0.89193
                        Activity of water  =   1.000
                 Ionic strength (mol/kgw)  =   6.118e-03
                       Mass of water (kg)  =   1.000e+00
                    Total carbon (mol/kg)  =   2.593e-03
                       Total CO2 (mol/kg)  =   2.593e-03
                         Temperature (°C)  =  25.00
                  Electrical balance (eq)  =   1.351e-17
 Percent error, 100*(Cat-|An|)/(Cat+|An|)  =   0.00
                               Iterations  =  11 (20 overall)
                                  Total H  = 1.110147e+02
                                  Total O  = 5.551672e+01

---------------------------------Redox couples---------------------------------

	Redox couple             pe  Eh (volts)

	O(-2)/O(0)          13.3362      0.7889

----------------------------Distribution of species----------------------------

                                               Log       Log       Log    mole V
   Species          Molality    Activity  Molality  Activity     Gamma   cm³/mol

   OH-             1.705e-07   1.567e-07    -6.768    -6.805    -0.037     -4.06
   H+              6.957e-08   6.457e-08    -7.158    -7.190    -0.032      0.00
   H2O             5.551e+01   9.999e-01     1.744    -0.000     0.000     18.07
Al            1.801e-06
   Al(OH)4-        1.720e-06   1.584e-06    -5.764    -5.800    -0.036     (0)  
   Al(OH)3         5.420e-08   5.428e-08    -7.266    -7.265     0.001     (0)  
   Al(OH)2+        2.579e-08   2.379e-08    -7.589    -7.624    -0.035     (0)  
   AlOH+2          2.706e-10   1.960e-10    -9.568    -9.708    -0.140    -27.61
   Al+3            2.493e-12   1.274e-12   -11.603   -11.895    -0.292    -41.99
   AlSO4+          1.943e-12   1.790e-12   -11.711   -11.747    -0.036     (0)  
   Al(SO4)2-       2.730e-14   2.514e-14   -13.564   -13.600    -0.036     (0)  
   AlHSO4+2        1.428e-20   1.025e-20   -19.845   -19.989    -0.144     (0)  
C(4)          2.593e-03
   HCO3-           2.276e-03   2.100e-03    -2.643    -2.678    -0.035     24.65
   CO2             3.046e-04   3.049e-04    -3.516    -3.516     0.000     34.79
   MgHCO3+         6.501e-06   5.982e-06    -5.187    -5.223    -0.036      5.51
   CaCO3           2.162e-06   2.165e-06    -5.665    -5.665     0.001    -14.60
   CO3-2           2.106e-06   1.525e-06    -5.676    -5.817    -0.140     -4.46
   NaHCO3          9.119e-07   9.138e-07    -6.040    -6.039     0.001     17.66
   MgCO3           3.538e-07   3.543e-07    -6.451    -6.451     0.001    -17.09
   CuCO3           7.649e-08   7.660e-08    -7.116    -7.116     0.001     (0)  
   ZnCO3           3.630e-08   3.635e-08    -7.440    -7.439     0.001     (0)  
   ZnHCO3+         3.431e-08   3.158e-08    -7.465    -7.501    -0.036     (0)  
   KHCO3           2.565e-08   2.569e-08    -7.591    -7.590     0.001     21.42
   FeHCO3+         2.461e-08   2.265e-08    -7.609    -7.645    -0.036     (0)  
   MnHCO3+         1.186e-08   1.093e-08    -7.926    -7.961    -0.035     (0)  
   CuHCO3+         1.069e-08   9.842e-09    -7.971    -8.007    -0.036     (0)  
   MnCO3           7.067e-09   7.077e-09    -8.151    -8.150     0.001     (0)  
   FeCO3           3.941e-09   3.947e-09    -8.404    -8.404     0.001     (0)  
   Zn(CO3)2-2      1.653e-09   1.186e-09    -8.782    -8.926    -0.144     (0)  
   (CO2)2          1.510e-09   1.511e-09    -8.821    -8.821     0.000     68.75
   Cu(CO3)2-2      2.051e-10   1.471e-10    -9.688    -9.832    -0.144     (0)  
   CaHCO3+         1.685e-10   1.556e-10    -9.774    -9.808    -0.035      9.71
Ca            1.222e-03
   Ca+2            1.167e-03   8.449e-04    -2.933    -3.073    -0.140    -17.99
   CaSO4           5.232e-05   5.236e-05    -4.281    -4.281     0.000      7.22
   CaCO3           2.162e-06   2.165e-06    -5.665    -5.665     0.001    -14.60
   CaOH+           2.360e-09   2.172e-09    -8.627    -8.663    -0.036     (0)  
   CaHCO3+         1.685e-10   1.556e-10    -9.774    -9.808    -0.035      9.71
   CaHSO4+         3.078e-11   2.833e-11   -10.512   -10.548    -0.036     (0)  
Cl            4.801e-04
   Cl-             4.801e-04   4.415e-04    -3.319    -3.355    -0.036     18.12
   ZnCl+           1.543e-10   1.420e-10    -9.812    -9.848    -0.036    -13.88
   MnCl+           1.140e-10   1.051e-10    -9.943    -9.979    -0.035     -3.05
   FeCl+           7.143e-11   6.574e-11   -10.146   -10.182    -0.036     (0)  
   CuCl2-          3.288e-11   3.026e-11   -10.483   -10.519    -0.036     (0)  
   ZnOHCl          2.701e-11   2.705e-11   -10.569   -10.568     0.001     (0)  
   CuCl+           1.208e-11   1.111e-11   -10.918   -10.954    -0.036      0.68
   HCl             9.762e-12   9.821e-12   -11.010   -11.008     0.003     20.36
   ZnCl2           6.554e-14   6.563e-14   -13.183   -13.183     0.001    102.03
   CuCl3-2         2.932e-14   2.117e-14   -13.533   -13.674    -0.141     (0)  
   MnCl2           2.022e-14   2.025e-14   -13.694   -13.694     0.001     85.89
   CuCl2           2.632e-15   2.635e-15   -14.580   -14.579     0.001     31.02
   ZnCl3-          3.534e-17   3.252e-17   -16.452   -16.488    -0.036     16.98
   MnCl3-          2.671e-18   2.463e-18   -17.573   -17.609    -0.035     43.40
   FeCl+2          1.902e-18   1.374e-18   -17.721   -17.862    -0.141     (0)  
   ZnCl4-2         9.965e-21   7.196e-21   -20.002   -20.143    -0.141    145.36
   CuCl3-          4.487e-21   4.129e-21   -20.348   -20.384    -0.036     (0)  
   FeCl2+          2.939e-21   2.709e-21   -20.532   -20.567    -0.035     (0)  
   FeCl3           1.194e-25   1.196e-25   -24.923   -24.922     0.001     (0)  
   CuCl4-2         1.265e-26   9.136e-27   -25.898   -26.039    -0.141     (0)  
Cu(1)         5.679e-10
   Cu+             5.350e-10   4.908e-10    -9.272    -9.309    -0.037     (0)  
   CuCl2-          3.288e-11   3.026e-11   -10.483   -10.519    -0.036     (0)  
   CuCl3-2         2.932e-14   2.117e-14   -13.533   -13.674    -0.141     (0)  
Cu(2)         1.495e-07
   CuCO3           7.649e-08   7.660e-08    -7.116    -7.116     0.001     (0)  
   Cu(OH)2         4.679e-08   4.686e-08    -7.330    -7.329     0.001     (0)  
   Cu+2            1.286e-08   9.351e-09    -7.891    -8.029    -0.138    -26.46
   CuHCO3+         1.069e-08   9.842e-09    -7.971    -8.007    -0.036     (0)  
   CuOH+           1.574e-09   1.448e-09    -8.803    -8.839    -0.036     (0)  
   CuSO4           8.470e-10   8.482e-10    -9.072    -9.072     0.001     13.09
   Cu(CO3)2-2      2.051e-10   1.471e-10    -9.688    -9.832    -0.144     (0)  
   CuCl+           1.208e-11   1.111e-11   -10.918   -10.954    -0.036      0.68
   Cu2(OH)2+2      1.279e-12   9.177e-13   -11.893   -12.037    -0.144     (0)  
   Cu(OH)3-        4.751e-14   4.372e-14   -13.323   -13.359    -0.036     (0)  
   CuCl2           2.632e-15   2.635e-15   -14.580   -14.579     0.001     31.02
   Cu(OH)4-2       1.883e-19   1.351e-19   -18.725   -18.869    -0.144     (0)  
   CuCl3-          4.487e-21   4.129e-21   -20.348   -20.384    -0.036     (0)  
   CuCl4-2         1.265e-26   9.136e-27   -25.898   -26.039    -0.141     (0)  
Fe(2)         1.860e-07
   Fe+2            1.483e-07   1.079e-07    -6.829    -6.967    -0.138    -21.99
   FeHCO3+         2.461e-08   2.265e-08    -7.609    -7.645    -0.036     (0)  
   FeSO4           8.509e-09   8.521e-09    -8.070    -8.070     0.001     30.28
   FeCO3           3.941e-09   3.947e-09    -8.404    -8.404     0.001     (0)  
   FeOH+           5.730e-10   5.282e-10    -9.242    -9.277    -0.035     (0)  
   FeCl+           7.143e-11   6.574e-11   -10.146   -10.182    -0.036     (0)  
   Fe(OH)2         6.953e-14   6.962e-14   -13.158   -13.157     0.001     (0)  
   FeHSO4+         3.929e-15   3.616e-15   -14.406   -14.442    -0.036     (0)  
   Fe(OH)3-        4.346e-17   4.006e-17   -16.362   -16.397    -0.035     (0)  
Fe(3)         1.641e-07
   Fe(OH)3         1.052e-07   1.054e-07    -6.978    -6.977     0.001     (0)  
   Fe(OH)2+        5.725e-08   5.282e-08    -7.242    -7.277    -0.035     (0)  
   Fe(OH)4-        1.613e-09   1.488e-09    -8.792    -8.827    -0.035     (0)  
   FeOH+2          1.426e-11   1.030e-11   -10.846   -10.987    -0.141     (0)  
   FeSO4+          5.443e-16   5.017e-16   -15.264   -15.300    -0.035     (0)  
   Fe+3            2.016e-16   1.030e-16   -15.696   -15.987    -0.292     (0)  
   Fe(SO4)2-       5.299e-18   4.877e-18   -17.276   -17.312    -0.036     (0)  
   FeCl+2          1.902e-18   1.374e-18   -17.721   -17.862    -0.141     (0)  
   Fe2(OH)2+4      1.078e-20   2.855e-21   -19.967   -20.544    -0.577     (0)  
   FeCl2+          2.939e-21   2.709e-21   -20.532   -20.567    -0.035     (0)  
   FeHSO4+2        1.209e-22   8.675e-23   -21.917   -22.062    -0.144     (0)  
   Fe3(OH)4+5      2.512e-25   3.151e-26   -24.600   -25.502    -0.902     (0)  
   FeCl3           1.194e-25   1.196e-25   -24.923   -24.922     0.001     (0)  
H(0)          5.894e-26
   H2              2.947e-26   2.951e-26   -25.531   -25.530     0.001     14.99
K             3.001e-05
   K+              2.978e-05   2.738e-05    -4.526    -4.563    -0.037      9.05
   KSO4-           2.001e-07   1.851e-07    -6.699    -6.733    -0.034     20.00
   KHCO3           2.565e-08   2.569e-08    -7.591    -7.590     0.001     21.42
Mg            3.701e-04
   Mg+2            3.349e-04   2.434e-04    -3.475    -3.614    -0.139    -21.68
   MgSO4           2.824e-05   2.832e-05    -4.549    -4.548     0.001     -0.40
   MgHCO3+         6.501e-06   5.982e-06    -5.187    -5.223    -0.036      5.51
   MgCO3           3.538e-07   3.543e-07    -6.451    -6.451     0.001    -17.09
   Mg(SO4)2-2      5.653e-08   4.143e-08    -7.248    -7.383    -0.135     36.97
   MgOH+           1.481e-08   1.369e-08    -7.829    -7.864    -0.034     (0)  
Mn(2)         1.000e-07
   Mn+2            8.030e-08   5.841e-08    -7.095    -7.234    -0.138    -20.14
   MnHCO3+         1.186e-08   1.093e-08    -7.926    -7.961    -0.035     (0)  
   MnCO3           7.067e-09   7.077e-09    -8.151    -8.150     0.001     (0)  
   MnSO4           6.648e-10   6.639e-10    -9.177    -9.178    -0.001     17.15
   MnCl+           1.140e-10   1.051e-10    -9.943    -9.979    -0.035     -3.05
   MnOH+           2.522e-11   2.325e-11   -10.598   -10.634    -0.035     (0)  
   MnCl2           2.022e-14   2.025e-14   -13.694   -13.694     0.001     85.89
   MnCl3-          2.671e-18   2.463e-18   -17.573   -17.609    -0.035     43.40
   Mn(OH)3-        3.730e-21   3.438e-21   -20.428   -20.464    -0.035     (0)  
Mn(3)         3.532e-29
   Mn+3            3.532e-29   1.805e-29   -28.452   -28.744    -0.292     (0)  
Na            9.603e-04
   Na+             9.556e-04   8.804e-04    -3.020    -3.055    -0.036     -1.41
   NaSO4-          3.732e-06   3.436e-06    -5.428    -5.464    -0.036     16.86
   NaHCO3          9.119e-07   9.138e-07    -6.040    -6.039     0.001     17.66
   Na2SO4          1.473e-12   1.475e-12   -11.832   -11.831     0.001     47.96
O(0)          2.201e-04
   O2              1.100e-04   1.102e-04    -3.958    -3.958     0.001     30.40
S(6)          7.002e-04
   SO4-2           6.156e-04   4.442e-04    -3.211    -3.352    -0.142     14.64
   CaSO4           5.232e-05   5.236e-05    -4.281    -4.281     0.000      7.22
   MgSO4           2.824e-05   2.832e-05    -4.549    -4.548     0.001     -0.40
   NaSO4-          3.732e-06   3.436e-06    -5.428    -5.464    -0.036     16.86
   KSO4-           2.001e-07   1.851e-07    -6.699    -6.733    -0.034     20.00
   Mg(SO4)2-2      5.653e-08   4.143e-08    -7.248    -7.383    -0.135     36.97
   ZnSO4           9.642e-09   9.656e-09    -8.016    -8.015     0.001      6.48
   FeSO4           8.509e-09   8.521e-09    -8.070    -8.070     0.001     30.28
   HSO4-           3.030e-09   2.789e-09    -8.519    -8.555    -0.036     40.32
   CuSO4           8.470e-10   8.482e-10    -9.072    -9.072     0.001     13.09
   MnSO4           6.648e-10   6.639e-10    -9.177    -9.178    -0.001     17.15
   CaHSO4+         3.078e-11   2.833e-11   -10.512   -10.548    -0.036     (0)  
   AlSO4+          1.943e-12   1.790e-12   -11.711   -11.747    -0.036     (0)  
   Na2SO4          1.473e-12   1.475e-12   -11.832   -11.831     0.001     47.96
   Zn(SO4)2-2      4.775e-13   3.330e-13   -12.321   -12.478    -0.157     44.57
   Al(SO4)2-       2.730e-14   2.514e-14   -13.564   -13.600    -0.036     (0)  
   FeHSO4+         3.929e-15   3.616e-15   -14.406   -14.442    -0.036     (0)  
   FeSO4+          5.443e-16   5.017e-16   -15.264   -15.300    -0.035     (0)  
   Fe(SO4)2-       5.299e-18   4.877e-18   -17.276   -17.312    -0.036     (0)  
   AlHSO4+2        1.428e-20   1.025e-20   -19.845   -19.989    -0.144     (0)  
   FeHSO4+2        1.209e-22   8.675e-23   -21.917   -22.062    -0.144     (0)  
Zn            2.501e-07
   Zn+2            1.654e-07   1.194e-07    -6.781    -6.923    -0.141    -25.21
   ZnCO3           3.630e-08   3.635e-08    -7.440    -7.439     0.001     (0)  
   ZnHCO3+         3.431e-08   3.158e-08    -7.465    -7.501    -0.036     (0)  
   ZnSO4           9.642e-09   9.656e-09    -8.016    -8.015     0.001      6.48
   ZnOH+           2.204e-09   2.028e-09    -8.657    -8.693    -0.036     (0)  
   Zn(CO3)2-2      1.653e-09   1.186e-09    -8.782    -8.926    -0.144     (0)  
   Zn(OH)2         3.601e-10   3.606e-10    -9.444    -9.443     0.001     (0)  
   ZnCl+           1.543e-10   1.420e-10    -9.812    -9.848    -0.036    -13.88
   ZnOHCl          2.701e-11   2.705e-11   -10.569   -10.568     0.001     (0)  
   Zn(SO4)2-2      4.775e-13   3.330e-13   -12.321   -12.478    -0.157     44.57
   ZnCl2           6.554e-14   6.563e-14   -13.183   -13.183     0.001    102.03
   Zn(OH)3-        1.919e-14   1.766e-14   -13.717   -13.753    -0.036     (0)  
   ZnCl3-          3.534e-17   3.252e-17   -16.452   -16.488    -0.036     16.98
   Zn(OH)4-2       6.043e-20   4.335e-20   -19.219   -19.363    -0.144     (0)  
   ZnCl4-2         9.965e-21   7.196e-21   -20.002   -20.143    -0.141    145.36

------------------------------Saturation indices-------------------------------

  Phase               SI** log IAP   log K(298 K,   1 atm)

  Al(OH)3(a)       -1.12      9.68   10.80  Al(OH)3
  AlOHSO4          -5.86     -8.06   -2.20  AlOHSO4
  Alunite          -2.41     -3.81   -1.40  KAl3(SO4)2(OH)6
  Anhydrite        -2.11     -6.43   -4.31  CaSO4
  Aragonite        -0.55     -8.89   -8.34  CaCO3
  Arcanite        -10.60    -12.48   -1.88  K2SO4
  Calcite          -0.44     -8.89   -8.45  CaCO3
  CO2(g)           -2.05     -3.52   -1.47  CO2
  Dolomite         -1.24    -18.32  -17.08  CaMg(CO3)2
  Epsomite         -5.23     -6.97   -1.74  MgSO4:7H2O
  Fe(OH)3           0.69      5.58    4.89  Fe(OH)3
  Fe(OH)3(a)        0.69      5.58    4.89  Fe(OH)3
  Gibbsite          1.57      9.68    8.11  Al(OH)3
  Goethite          6.58      5.58   -1.00  FeOOH
  Gypsum           -1.88     -6.43   -4.55  CaSO4:2H2O
  H2(g)           -22.43    -25.53   -3.10  H2
  H2O(g)           -1.50     -0.00    1.50  H2O
  Halite           -7.98     -6.41    1.57  NaCl
  Hausmannite     -17.21     43.82   61.03  Mn3O4
  Hematite         15.17     11.17   -4.01  Fe2O3
  Hexahydrite      -5.40     -6.97   -1.57  MgSO4:6H2O
  Jarosite-K       -6.88    -16.09   -9.21  KFe3(SO4)2(OH)6
  Kieserite        -5.80     -6.97   -1.16  MgSO4:H2O
  Manganite        -7.00     18.34   25.34  MnOOH
  Melanterite      -8.11    -10.32   -2.21  FeSO4:7H2O
  Mirabilite       -8.76     -9.46   -0.71  Na2SO4:10H2O
  MnO2            -11.85     29.53   41.38  MnO2
  O2(g)            -1.07     -3.96   -2.89  O2
  Pyrochroite      -8.05      7.15   15.20  Mn(OH)2
  Pyrolusite      -11.85     29.53   41.38  MnO2:H2O
  Rhodochrosite    -1.92    -13.05  -11.13  MnCO3
  Siderite         -1.89    -12.78  -10.89  FeCO3
  Smithsonite      -2.74    -12.74  -10.00  ZnCO3
  Sylvite          -8.82     -7.92    0.90  KCl
  Thenardite      -10.11     -9.46    0.65  Na2SO4
  Zn(OH)2(e)       -4.04      7.46   11.50  Zn(OH)2

**For a gas, SI = log10(fugacity). Fugacity = pressure * phi / 1 atm.
  For ideal gases, phi = 1.

------------------------------------
Beginning of advection calculations.
------------------------------------

Beginning of advection time step 1, cumulative pore volumes 0.200000.
Beginning of advection time step 2, cumulative pore volumes 0.400000.
Beginning of advection time step 3, cumulative pore volumes 0.600000.
Beginning of advection time step 4, cumulative pore volumes 0.800000.
Beginning of advection time step 5, cumulative pore volumes 1.000000.

Cell 1.

Using solution 1.	
Using surface 1.	
Using pure phase assemblage 1.	Pure-phase assemblage after simulation 1.

-------------------------------Phase assemblage--------------------------------

                                                      Moles in assemblage
Phase               SI  log IAP  log K(T, P)   Initial       Final       Delta

Al(OH)3(a)       -0.00    10.80     10.80    4.256e-02   4.816e-02   5.601e-03
AlOHSO4           0.00    -2.20     -2.20    0.000e+00   4.907e-03   4.907e-03
Calcite          -4.93   -13.38     -8.45    0.000e+00           0   0.000e+00
Fe(OH)3           0.00     4.89      4.89    8.190e-01   8.187e-01  -3.183e-04
Gypsum            0.00    -4.55     -4.55    1.429e-01   1.448e-01   1.904e-03
MnO2            -15.25    26.13     41.38    0.000e+00           0   0.000e+00

------------------------------Surface composition------------------------------

Diffuse Double Layer Surface-Complexation Model

Surf          
	  7.898e-02  Surface charge, eq
	  1.954e-01  sigma, C/m²
	  1.015e-01  psi, V
	 -3.951e+00  -F*psi/RT
	  1.923e-02  exp(-F*psi/RT)
	  6.000e+02  specific area, m²/g
	  3.900e+04  m² for   6.500e+01 g


Surf          
	  1.500e-01  moles
	                                   Mole                     Log
	Species               Moles    Fraction    Molality    Molality

	SurfOH            6.778e-02       0.452   6.781e-02      -1.169
	SurfOH2+          6.507e-02       0.434   6.510e-02      -1.186
	SurfOCu+          1.162e-02       0.077   1.163e-02      -1.934
	SurfOMn+          3.386e-03       0.023   3.388e-03      -2.470
	SurfO-            1.618e-03       0.011   1.618e-03      -2.791
	SurfOZn+          5.166e-04       0.003   5.168e-04      -3.287

-----------------------------Solution composition------------------------------

	Elements           Molality       Moles

	Al                1.458e-04   1.458e-04
	C                 1.045e-05   1.045e-05
	Ca                9.871e-03   9.866e-03
	Cl                9.644e-03   9.640e-03
	Cu                7.894e-05   7.891e-05
	Fe                5.351e-02   5.349e-02
	K                 2.030e-04   2.029e-04
	Mg                1.604e-02   1.603e-02
	Mn                9.519e-03   9.514e-03
	Na                9.542e-03   9.538e-03
	S                 9.502e-02   9.497e-02
	Zn                6.102e-04   6.099e-04

----------------------------Description of solution----------------------------

                                       pH  =   5.592      Charge balance
                                       pe  =   3.169      Adjusted to redox equilibrium
      Specific Conductance (µS/cm,  25°C)  = 11720
                          Density (g/cm³)  =   1.01020
                               Volume (L)  =   1.00336
                        Viscosity (mPa s)  =   0.91375
                        Activity of water  =   0.997
                 Ionic strength (mol/kgw)  =   2.219e-01
                       Mass of water (kg)  =   9.996e-01
                 Total alkalinity (eq/kg)  =   4.930e-05
                       Total CO2 (mol/kg)  =   1.045e-05
                         Temperature (°C)  =  25.00
                  Electrical balance (eq)  =  -1.032e-02
 Percent error, 100*(Cat-|An|)/(Cat+|An|)  =  -4.46
                               Iterations  =   8
                                  Total H  = 1.109633e+02
                                  Total O  = 5.586158e+01

----------------------------Distribution of species----------------------------

                                               Log       Log       Log    mole V
   Species          Molality    Activity  Molality  Activity     Gamma   cm³/mol

   H+              3.226e-06   2.560e-06    -5.491    -5.592    -0.100      0.00
   OH-             5.645e-09   3.943e-09    -8.248    -8.404    -0.156     -3.45
   H2O             5.551e+01   9.972e-01     1.744    -0.001     0.000     18.07
Al            1.458e-04
   AlSO4+          7.097e-05   5.122e-05    -4.149    -4.291    -0.142     (0)  
   Al(SO4)2-       3.405e-05   2.458e-05    -4.468    -4.609    -0.142     (0)  
   Al(OH)2+        1.705e-05   1.261e-05    -4.768    -4.899    -0.131     (0)  
   AlOH+2          1.379e-05   4.130e-06    -4.860    -5.384    -0.524    -26.91
   Al+3            8.551e-06   1.067e-06    -5.068    -5.972    -0.904    -40.78
   Al(OH)4-        7.363e-07   5.314e-07    -6.133    -6.275    -0.142     (0)  
   Al(OH)3         6.877e-07   7.238e-07    -6.163    -6.140     0.022     (0)  
   AlHSO4+2        3.828e-11   1.163e-11   -10.417   -10.935    -0.517     (0)  
C(-4)         0.000e+00
   CH4             0.000e+00   0.000e+00   -50.867   -50.845     0.022     35.46
C(4)          1.045e-05
   CO2             6.800e-06   7.033e-06    -5.167    -5.153     0.015     34.79
   HCO3-           1.641e-06   1.219e-06    -5.785    -5.914    -0.129     26.05
   FeHCO3+         1.534e-06   1.139e-06    -5.814    -5.944    -0.129     (0)  
   MnHCO3+         3.928e-07   2.875e-07    -6.406    -6.541    -0.135     (0)  
   MgHCO3+         4.513e-08   3.207e-08    -7.346    -7.494    -0.148      5.72
   ZnHCO3+         2.049e-08   1.521e-08    -7.689    -7.818    -0.129     (0)  
   FeCO3           4.754e-09   5.004e-09    -8.323    -8.301     0.022     (0)  
   CuHCO3+         4.717e-09   3.502e-09    -8.326    -8.456    -0.129     (0)  
   MnCO3           4.461e-09   4.694e-09    -8.351    -8.328     0.022     (0)  
   NaHCO3          3.485e-09   3.764e-09    -8.458    -8.424     0.034     17.66
   CuCO3           6.531e-10   6.873e-10    -9.185    -9.163     0.022     (0)  
   ZnCO3           4.196e-10   4.415e-10    -9.377    -9.355     0.022     (0)  
   CO3-2           7.452e-11   2.232e-11   -10.128   -10.651    -0.524     -2.48
   CaCO3           6.675e-11   7.025e-11   -10.176   -10.153     0.022    -14.60
   KHCO3           6.163e-11   6.486e-11   -10.210   -10.188     0.022     21.42
   MgCO3           4.552e-11   4.791e-11   -10.342   -10.320     0.022    -17.09
   (CO2)2          7.775e-13   8.042e-13   -12.109   -12.095     0.015     68.75
   CaHCO3+         2.666e-13   2.001e-13   -12.574   -12.699    -0.125      9.88
   Zn(CO3)2-2      6.937e-16   2.107e-16   -15.159   -15.676    -0.517     (0)  
   Cu(CO3)2-2      6.359e-17   1.932e-17   -16.197   -16.714    -0.517     (0)  
Ca            9.871e-03
   Ca+2            5.995e-03   1.873e-03    -2.222    -2.727    -0.505    -17.17
   CaSO4           3.876e-03   3.965e-03    -2.412    -2.402     0.010      7.22
   CaHSO4+         1.146e-07   8.506e-08    -6.941    -7.070    -0.129     (0)  
   CaOH+           1.631e-10   1.211e-10    -9.787    -9.917    -0.129     (0)  
   CaCO3           6.675e-11   7.025e-11   -10.176   -10.153     0.022    -14.60
   CaHCO3+         2.666e-13   2.001e-13   -12.574   -12.699    -0.125      9.88
Cl            9.644e-03
   Cl-             9.346e-03   6.615e-03    -2.029    -2.179    -0.150     18.48
   FeCl+           1.149e-04   8.533e-05    -3.940    -4.069    -0.129     (0)  
   MnCl+           9.746e-05   7.135e-05    -4.011    -4.147    -0.135     -2.87
   CuCl2-          3.973e-05   2.823e-05    -4.401    -4.549    -0.148     (0)  
   ZnCl+           2.484e-06   1.765e-06    -5.605    -5.753    -0.148    -14.44
   CuCl3-2         1.031e-06   2.960e-07    -5.987    -6.529    -0.542     (0)  
   MnCl2           1.958e-07   2.060e-07    -6.708    -6.686     0.022     85.89
   CuCl+           1.437e-07   1.021e-07    -6.843    -6.991    -0.148      1.18
   ZnCl2           1.162e-08   1.223e-08    -7.935    -7.913     0.022    102.03
   ZnOHCl          8.038e-09   8.459e-09    -8.095    -8.073     0.022     (0)  
   HCl             4.694e-09   5.834e-09    -8.328    -8.234     0.094     20.36
   MnCl3-          5.128e-10   3.754e-10    -9.290    -9.425    -0.135     44.32
   CuCl2           3.446e-10   3.627e-10    -9.463    -9.440     0.022     31.02
   ZnCl3-          1.277e-10   9.076e-11    -9.894   -10.042    -0.148     15.68
   ZnCl4-2         1.048e-12   3.009e-13   -11.980   -12.522    -0.542    147.54
   FeCl+2          9.156e-13   2.630e-13   -12.038   -12.580    -0.542     (0)  
   CuCl3-          1.198e-14   8.513e-15   -13.922   -14.070    -0.148     (0)  
   FeCl2+          1.061e-14   7.771e-15   -13.974   -14.110    -0.135     (0)  
   FeCl3           4.885e-18   5.141e-18   -17.311   -17.289     0.022     (0)  
   CuCl4-2         9.828e-19   2.823e-19   -18.008   -18.549    -0.542     (0)  
Cu(1)         4.380e-05
   CuCl2-          3.973e-05   2.823e-05    -4.401    -4.549    -0.148     (0)  
   Cu+             3.040e-06   2.040e-06    -5.517    -5.690    -0.173     (0)  
   CuCl3-2         1.031e-06   2.960e-07    -5.987    -6.529    -0.542     (0)  
Cu(2)         3.514e-05
   Cu+2            1.806e-05   5.734e-06    -4.743    -5.242    -0.498    -25.72
   CuSO4           1.688e-05   1.776e-05    -4.773    -4.750     0.022     13.09
   CuCl+           1.437e-07   1.021e-07    -6.843    -6.991    -0.148      1.18
   CuOH+           3.143e-08   2.233e-08    -7.503    -7.651    -0.148     (0)  
   Cu(OH)2         1.727e-08   1.818e-08    -7.763    -7.740     0.022     (0)  
   CuHCO3+         4.717e-09   3.502e-09    -8.326    -8.456    -0.129     (0)  
   Cu2(OH)2+2      7.186e-10   2.183e-10    -9.144    -9.661    -0.517     (0)  
   CuCO3           6.531e-10   6.873e-10    -9.185    -9.163     0.022     (0)  
   CuCl2           3.446e-10   3.627e-10    -9.463    -9.440     0.022     31.02
   CuCl3-          1.198e-14   8.513e-15   -13.922   -14.070    -0.148     (0)  
   Cu(OH)3-        5.747e-16   4.267e-16   -15.241   -15.370    -0.129     (0)  
   Cu(CO3)2-2      6.359e-17   1.932e-17   -16.197   -16.714    -0.517     (0)  
   CuCl4-2         9.828e-19   2.823e-19   -18.008   -18.549    -0.542     (0)  
   Cu(OH)4-2       1.092e-22   3.316e-23   -21.962   -22.479    -0.517     (0)  
   Cu(HS)3-        0.000e+00   0.000e+00  -110.733  -110.863    -0.129     (0)  
Fe(2)         5.351e-02
   Fe+2            2.943e-02   9.344e-03    -1.531    -2.029    -0.498    -21.21
   FeSO4           2.396e-02   2.521e-02    -1.621    -1.598     0.022     30.28
   FeCl+           1.149e-04   8.533e-05    -3.940    -4.069    -0.129     (0)  
   FeOH+           1.572e-06   1.151e-06    -5.803    -5.939    -0.135     (0)  
   FeHCO3+         1.534e-06   1.139e-06    -5.814    -5.944    -0.129     (0)  
   FeHSO4+         5.715e-07   4.243e-07    -6.243    -6.372    -0.129     (0)  
   FeCO3           4.754e-09   5.004e-09    -8.323    -8.301     0.022     (0)  
   Fe(OH)2         3.626e-12   3.816e-12   -11.441   -11.418     0.022     (0)  
   Fe(OH)3-        7.545e-17   5.523e-17   -16.122   -16.258    -0.135     (0)  
   Fe(HS)2         0.000e+00   0.000e+00   -80.782   -80.760     0.022     (0)  
   Fe(HS)3-        0.000e+00   0.000e+00  -122.434  -122.564    -0.129     (0)  
Fe(3)         6.095e-07
   Fe(OH)2+        5.772e-07   4.270e-07    -6.239    -6.370    -0.131     (0)  
   Fe(OH)3         2.036e-08   2.143e-08    -7.691    -7.669     0.022     (0)  
   FeOH+2          1.153e-08   3.311e-09    -7.938    -8.480    -0.542     (0)  
   FeSO4+          2.992e-10   2.190e-10    -9.524    -9.660    -0.135     (0)  
   Fe(SO4)2-       9.793e-11   7.270e-11   -10.009   -10.138    -0.129     (0)  
   Fe+3            1.054e-11   1.316e-12   -10.977   -11.881    -0.904     (0)  
   Fe(OH)4-        1.029e-11   7.613e-12   -10.988   -11.118    -0.131     (0)  
   FeCl+2          9.156e-13   2.630e-13   -12.038   -12.580    -0.542     (0)  
   Fe2(OH)2+4      3.464e-14   2.950e-16   -13.460   -15.530    -2.070     (0)  
   FeCl2+          1.061e-14   7.771e-15   -13.974   -14.110    -0.135     (0)  
   FeHSO4+2        4.942e-15   1.501e-15   -14.306   -14.824    -0.517     (0)  
   Fe3(OH)4+5      4.512e-17   2.632e-20   -16.346   -19.580    -3.234     (0)  
   FeCl3           4.885e-18   5.141e-18   -17.311   -17.289     0.022     (0)  
H(0)          4.042e-21
   H2              2.021e-21   2.132e-21   -20.694   -20.671     0.023     14.99
K             2.030e-04
   K+              1.693e-04   1.192e-04    -3.771    -3.924    -0.153      9.36
   KSO4-           3.375e-05   2.751e-05    -4.472    -4.561    -0.089     29.05
   KHCO3           6.163e-11   6.486e-11   -10.210   -10.188     0.022     21.42
Mg            1.604e-02
   MgSO4           8.067e-03   8.935e-03    -2.093    -2.049     0.044     -0.40
   Mg+2            6.711e-03   2.249e-03    -2.173    -2.648    -0.475    -20.89
   Mg(SO4)2-2      1.261e-03   4.466e-04    -2.899    -3.350    -0.451     45.38
   MgHCO3+         4.513e-08   3.207e-08    -7.346    -7.494    -0.148      5.72
   MgOH+           4.191e-09   3.181e-09    -8.378    -8.497    -0.120     (0)  
   MgCO3           4.552e-11   4.791e-11   -10.342   -10.320     0.022    -17.09
Mn(2)         9.519e-03
   Mn+2            8.340e-03   2.648e-03    -2.079    -2.577    -0.498    -17.45
   MnSO4           1.081e-03   1.028e-03    -2.966    -2.988    -0.022     17.15
   MnCl+           9.746e-05   7.135e-05    -4.011    -4.147    -0.135     -2.87
   MnHCO3+         3.928e-07   2.875e-07    -6.406    -6.541    -0.135     (0)  
   MnCl2           1.958e-07   2.060e-07    -6.708    -6.686     0.022     85.89
   MnOH+           3.621e-08   2.651e-08    -7.441    -7.577    -0.135     (0)  
   MnCO3           4.461e-09   4.694e-09    -8.351    -8.328     0.022     (0)  
   MnCl3-          5.128e-10   3.754e-10    -9.290    -9.425    -0.135     44.32
   Mn(OH)3-        3.388e-21   2.480e-21   -20.470   -20.606    -0.135     (0)  
Mn(3)         9.668e-25
   Mn+3            9.668e-25   1.207e-25   -24.015   -24.918    -0.904     (0)  
Na            9.542e-03
   Na+             8.413e-03   6.250e-03    -2.075    -2.204    -0.129     -0.90
   NaSO4-          1.129e-03   8.331e-04    -2.947    -3.079    -0.132     19.34
   NaHCO3          3.485e-09   3.764e-09    -8.458    -8.424     0.034     17.66
   Na2SO4          2.427e-09   2.539e-09    -8.615    -8.595     0.020     47.96
O(0)          0.000e+00
   O2              0.000e+00   0.000e+00   -51.045   -51.023     0.022     30.40
S(-2)         0.000e+00
   H2S             0.000e+00   0.000e+00   -42.513   -42.490     0.022     36.27
   HS-             0.000e+00   0.000e+00   -43.685   -43.840    -0.156     21.02
   S-2             0.000e+00   0.000e+00   -50.625   -51.167    -0.542     (0)  
   Zn(HS)2         0.000e+00   0.000e+00   -76.767   -76.744     0.022     (0)  
   Fe(HS)2         0.000e+00   0.000e+00   -80.782   -80.760     0.022     (0)  
   (H2S)2          0.000e+00   0.000e+00   -86.281   -86.259     0.022     30.09
   Cu(HS)3-        0.000e+00   0.000e+00  -110.733  -110.863    -0.129     (0)  
   Zn(HS)3-        0.000e+00   0.000e+00  -119.295  -119.425    -0.129     (0)  
   Fe(HS)3-        0.000e+00   0.000e+00  -122.434  -122.564    -0.129     (0)  
S(6)          9.502e-02
   SO4-2           5.392e-02   1.517e-02    -1.268    -1.819    -0.551     15.62
   FeSO4           2.396e-02   2.521e-02    -1.621    -1.598     0.022     30.28
   MgSO4           8.067e-03   8.935e-03    -2.093    -2.049     0.044     -0.40
   CaSO4           3.876e-03   3.965e-03    -2.412    -2.402     0.010      7.22
   Mg(SO4)2-2      1.261e-03   4.466e-04    -2.899    -3.350    -0.451     45.38
   NaSO4-          1.129e-03   8.331e-04    -2.947    -3.079    -0.132     19.34
   MnSO4           1.081e-03   1.028e-03    -2.966    -2.988    -0.022     17.15
   ZnSO4           2.601e-04   2.737e-04    -3.585    -3.563     0.022      6.48
   AlSO4+          7.097e-05   5.122e-05    -4.149    -4.291    -0.142     (0)  
   Al(SO4)2-       3.405e-05   2.458e-05    -4.468    -4.609    -0.142     (0)  
   KSO4-           3.375e-05   2.751e-05    -4.472    -4.561    -0.089     29.05
   CuSO4           1.688e-05   1.776e-05    -4.773    -4.750     0.022     13.09
   HSO4-           5.087e-06   3.777e-06    -5.294    -5.423    -0.129     40.67
   Zn(SO4)2-2      2.327e-06   3.224e-07    -5.633    -6.492    -0.858     45.31
   FeHSO4+         5.715e-07   4.243e-07    -6.243    -6.372    -0.129     (0)  
   CaHSO4+         1.146e-07   8.506e-08    -6.941    -7.070    -0.129     (0)  
   Na2SO4          2.427e-09   2.539e-09    -8.615    -8.595     0.020     47.96
   FeSO4+          2.992e-10   2.190e-10    -9.524    -9.660    -0.135     (0)  
   Fe(SO4)2-       9.793e-11   7.270e-11   -10.009   -10.138    -0.129     (0)  
   AlHSO4+2        3.828e-11   1.163e-11   -10.417   -10.935    -0.517     (0)  
   FeHSO4+2        4.942e-15   1.501e-15   -14.306   -14.824    -0.517     (0)  
Zn            6.102e-04
   Zn+2            3.452e-04   9.914e-05    -3.462    -4.004    -0.542    -24.46
   ZnSO4           2.601e-04   2.737e-04    -3.585    -3.563     0.022      6.48
   ZnCl+           2.484e-06   1.765e-06    -5.605    -5.753    -0.148    -14.44
   Zn(SO4)2-2      2.327e-06   3.224e-07    -5.633    -6.492    -0.858     45.31
   ZnOH+           5.704e-08   4.234e-08    -7.244    -7.373    -0.129     (0)  
   ZnHCO3+         2.049e-08   1.521e-08    -7.689    -7.818    -0.129     (0)  
   ZnCl2           1.162e-08   1.223e-08    -7.935    -7.913     0.022    102.03
   ZnOHCl          8.038e-09   8.459e-09    -8.095    -8.073     0.022     (0)  
   ZnCO3           4.196e-10   4.415e-10    -9.377    -9.355     0.022     (0)  
   Zn(OH)2         1.799e-10   1.894e-10    -9.745    -9.723     0.022     (0)  
   ZnCl3-          1.277e-10   9.076e-11    -9.894   -10.042    -0.148     15.68
   ZnCl4-2         1.048e-12   3.009e-13   -11.980   -12.522    -0.542    147.54
   Zn(CO3)2-2      6.937e-16   2.107e-16   -15.159   -15.676    -0.517     (0)  
   Zn(OH)3-        3.142e-16   2.333e-16   -15.503   -15.632    -0.129     (0)  
   Zn(OH)4-2       4.741e-23   1.440e-23   -22.324   -22.842    -0.517     (0)  
   Zn(HS)2         0.000e+00   0.000e+00   -76.767   -76.744     0.022     (0)  
   Zn(HS)3-        0.000e+00   0.000e+00  -119.295  -119.425    -0.129     (0)  

------------------------------Saturation indices-------------------------------

  Phase               SI** log IAP   log K(298 K,   1 atm)

  Al(OH)3(a)       -0.00     10.80   10.80  Al(OH)3
  AlOHSO4           0.00     -2.20   -2.20  AlOHSO4
  Alunite           9.47      8.07   -1.40  KAl3(SO4)2(OH)6
  Anhydrite        -0.23     -4.55   -4.31  CaSO4
  Aragonite        -5.04    -13.38   -8.34  CaCO3
  Arcanite         -7.79     -9.67   -1.88  K2SO4
  Calcite          -4.93    -13.38   -8.45  CaCO3
  CH4(g)          -48.04    -50.84   -2.80  CH4
  CO2(g)           -3.68     -5.15   -1.47  CO2
  Dolomite         -9.59    -26.68  -17.08  CaMg(CO3)2
  Epsomite         -2.74     -4.48   -1.74  MgSO4:7H2O
  Fe(OH)3           0.00      4.89    4.89  Fe(OH)3
  Fe(OH)3(a)        0.00      4.89    4.89  Fe(OH)3
  FeS(ppt)        -36.36    -40.28   -3.92  FeS
  Gibbsite          2.69     10.80    8.11  Al(OH)3
  Goethite          5.89      4.89   -1.00  FeOOH
  Gypsum            0.00     -4.55   -4.55  CaSO4:2H2O
  H2(g)           -17.57    -20.67   -3.10  H2
  H2O(g)           -1.50     -0.00    1.50  H2O
  H2S(g)          -41.50    -49.43   -7.94  H2S
  Halite           -5.95     -4.38    1.57  NaCl
  Hausmannite     -17.69     43.34   61.03  Mn3O4
  Hematite         13.79      9.79   -4.01  Fe2O3
  Hexahydrite      -2.91     -4.47   -1.57  MgSO4:6H2O
  Jarosite-K       -0.45     -9.66   -9.21  KFe3(SO4)2(OH)6
  Kieserite        -3.31     -4.47   -1.16  MgSO4:H2O
  Mackinawite     -35.63    -40.28   -4.65  FeS
  Manganite        -7.98     17.36   25.34  MnOOH
  Melanterite      -1.65     -3.86   -2.21  FeSO4:7H2O
  Mirabilite       -5.53     -6.24   -0.71  Na2SO4:10H2O
  MnO2            -15.25     26.13   41.38  MnO2
  O2(g)           -48.13    -51.02   -2.89  O2
  Pyrite          -53.71    -72.19  -18.48  FeS2
  Pyrochroite      -6.60      8.60   15.20  Mn(OH)2
  Pyrolusite      -15.26     26.12   41.38  MnO2:H2O
  Rhodochrosite    -2.10    -13.23  -11.13  MnCO3
  Siderite         -1.79    -12.68  -10.89  FeCO3
  Smithsonite      -4.66    -14.66  -10.00  ZnCO3
  Sphalerite      -30.63    -42.25  -11.62  ZnS
  Sulfur          -29.85    -24.97    4.88  S
  Sylvite          -7.00     -6.10    0.90  KCl
  Thenardite       -6.88     -6.23    0.65  Na2SO4
  Zn(OH)2(e)       -4.32      7.18   11.50  Zn(OH)2

**For a gas, SI = log10(fugacity). Fugacity = pressure * phi / 1 atm.
  For ideal gases, phi = 1.


Cell 2.

Using solution 2.	Solution after simulation 1.
Using surface 2.	
Using pure phase assemblage 2.	Pure-phase assemblage after simulation 1.

-------------------------------Phase assemblage--------------------------------

                                                      Moles in assemblage
Phase               SI  log IAP  log K(T, P)   Initial       Final       Delta

Al(OH)3(a)       -0.00    10.80     10.80    0.000e+00   2.143e-05   2.143e-05
AlOHSO4          -1.78    -3.98     -2.20    0.000e+00           0   0.000e+00
Calcite           0.00    -8.45     -8.45    9.934e-02   6.221e-02  -3.713e-02
Fe(OH)3           0.00     4.89      4.89    8.002e-01   8.196e-01   1.934e-02
Gypsum            0.00    -4.55     -4.55    4.486e-02   8.060e-02   3.574e-02
MnO2            -16.55    24.83     41.38    9.703e-03           0  -9.703e-03

------------------------------Surface composition------------------------------

Diffuse Double Layer Surface-Complexation Model

Surf          
	  5.150e-02  Surface charge, eq
	  1.274e-01  sigma, C/m²
	  8.670e-02  psi, V
	 -3.375e+00  -F*psi/RT
	  3.423e-02  exp(-F*psi/RT)
	  6.000e+02  specific area, m²/g
	  3.900e+04  m² for   6.500e+01 g


Surf          
	  1.500e-01  moles
	                                   Mole                     Log
	Species               Moles    Fraction    Molality    Molality

	SurfOH            8.312e-02       0.554   8.332e-02      -1.079
	SurfOMn+          3.774e-02       0.252   3.783e-02      -1.422
	SurfOH2+          2.057e-02       0.137   2.062e-02      -1.686
	SurfO-            7.692e-03       0.051   7.711e-03      -2.113
	SurfOCu+          4.514e-04       0.003   4.526e-04      -3.344
	SurfOZn+          4.257e-04       0.003   4.267e-04      -3.370

-----------------------------Solution composition------------------------------

	Elements           Molality       Moles

	Al                8.599e-06   8.578e-06
	C                 3.723e-02   3.714e-02
	Ca                1.101e-02   1.098e-02
	Cl                9.663e-03   9.640e-03
	Cu                2.195e-05   2.189e-05
	Fe                3.419e-02   3.410e-02
	K                 2.034e-04   2.029e-04
	Mg                1.607e-02   1.603e-02
	Mn                9.422e-03   9.399e-03
	Na                9.562e-03   9.538e-03
	S                 6.402e-02   6.386e-02
	Zn                4.137e-05   4.126e-05

----------------------------Description of solution----------------------------

                                       pH  =   6.431      Charge balance
                                       pe  =   0.907      Adjusted to redox equilibrium
      Specific Conductance (µS/cm,  25°C)  = 9650
                          Density (g/cm³)  =   1.00787
                               Volume (L)  =   1.00173
                        Viscosity (mPa s)  =   0.91260
                        Activity of water  =   0.997
                 Ionic strength (mol/kgw)  =   1.732e-01
                       Mass of water (kg)  =   9.976e-01
                 Total alkalinity (eq/kg)  =   2.802e-02
                       Total CO2 (mol/kg)  =   3.723e-02
                         Temperature (°C)  =  25.00
                  Electrical balance (eq)  =  -1.442e-02
 Percent error, 100*(Cat-|An|)/(Cat+|An|)  =  -7.36
                               Iterations  =   7
                                  Total H  = 1.107676e+02
                                  Total O  = 5.572752e+01

----------------------------Distribution of species----------------------------

                                               Log       Log       Log    mole V
   Species          Molality    Activity  Molality  Activity     Gamma   cm³/mol

   H+              4.617e-07   3.709e-07    -6.336    -6.431    -0.095      0.00
   OH-             3.788e-08   2.722e-08    -7.422    -7.565    -0.144     -3.56
   H2O             5.551e+01   9.974e-01     1.744    -0.001     0.000     18.07
Al            8.599e-06
   Al(OH)4-        4.965e-06   3.669e-06    -5.304    -5.436    -0.131     (0)  
   Al(OH)2+        2.420e-06   1.827e-06    -5.616    -5.738    -0.122     (0)  
   Al(OH)3         6.955e-07   7.238e-07    -6.158    -6.140     0.017     (0)  
   AlOH+2          2.668e-07   8.666e-08    -6.574    -7.062    -0.488    -26.97
   AlSO4+          1.660e-07   1.227e-07    -6.780    -6.911    -0.131     (0)  
   Al(SO4)2-       6.278e-08   4.639e-08    -7.202    -7.334    -0.131     (0)  
   Al+3            2.331e-08   3.244e-09    -7.632    -8.489    -0.856    -40.88
   AlHSO4+2        1.257e-14   4.034e-15   -13.901   -14.394    -0.494     (0)  
C(-4)         4.636e-37
   CH4             4.636e-37   4.824e-37   -36.334   -36.317     0.017     35.46
C(4)          3.723e-02
   HCO3-           1.567e-02   1.186e-02    -1.805    -1.926    -0.121     25.80
   CO2             9.661e-03   9.919e-03    -2.015    -2.004     0.011     34.79
   FeHCO3+         8.171e-03   6.150e-03    -2.088    -2.211    -0.123     (0)  
   MnHCO3+         2.769e-03   2.071e-03    -2.558    -2.684    -0.126     (0)  
   MgHCO3+         4.912e-04   3.581e-04    -3.309    -3.446    -0.137      5.70
   MnCO3           2.243e-04   2.334e-04    -3.649    -3.632     0.017     (0)  
   FeCO3           1.793e-04   1.866e-04    -3.746    -3.729     0.017     (0)  
   NaHCO3          3.591e-05   3.814e-05    -4.445    -4.419     0.026     17.66
   ZnHCO3+         1.076e-05   8.099e-06    -4.968    -5.092    -0.123     (0)  
   CaCO3           5.755e-06   5.989e-06    -5.240    -5.223     0.017    -14.60
   CO3-2           4.620e-06   1.500e-06    -5.335    -5.824    -0.488     -2.76
   MgCO3           3.549e-06   3.693e-06    -5.450    -5.433     0.017    -17.09
   ZnCO3           1.560e-06   1.623e-06    -5.807    -5.790     0.017     (0)  
   (CO2)2          1.558e-06   1.600e-06    -5.807    -5.796     0.011     68.75
   KHCO3           6.427e-07   6.688e-07    -6.192    -6.175     0.017     21.42
   Zn(CO3)2-2      1.622e-07   5.207e-08    -6.790    -7.283    -0.494     (0)  
   CuHCO3+         1.168e-07   8.790e-08    -6.933    -7.056    -0.123     (0)  
   CuCO3           1.144e-07   1.191e-07    -6.941    -6.924     0.017     (0)  
   CaHCO3+         3.233e-09   2.472e-09    -8.490    -8.607    -0.117      9.87
   Cu(CO3)2-2      7.008e-10   2.250e-10    -9.154    -9.648    -0.494     (0)  
Ca            1.101e-02
   Ca+2            7.106e-03   2.376e-03    -2.148    -2.624    -0.476    -17.26
   CaSO4           3.894e-03   3.964e-03    -2.410    -2.402     0.008      7.22
   CaCO3           5.755e-06   5.989e-06    -5.240    -5.223     0.017    -14.60
   CaHSO4+         1.637e-08   1.232e-08    -7.786    -7.909    -0.123     (0)  
   CaHCO3+         3.233e-09   2.472e-09    -8.490    -8.607    -0.117      9.87
   CaOH+           1.409e-09   1.061e-09    -8.851    -8.974    -0.123     (0)  
Cl            9.663e-03
   Cl-             9.483e-03   6.887e-03    -2.023    -2.162    -0.139     18.43
   MnCl+           7.346e-05   5.495e-05    -4.134    -4.260    -0.126     -2.89
   FeCl+           6.547e-05   4.928e-05    -4.184    -4.307    -0.123     (0)  
   CuCl2-          1.975e-05   1.440e-05    -4.704    -4.842    -0.137     (0)  
   CuCl3-2         5.020e-07   1.572e-07    -6.299    -6.804    -0.504     (0)  
   MnCl2           1.587e-07   1.652e-07    -6.799    -6.782     0.017     85.89
   ZnCl+           1.379e-07   1.005e-07    -6.861    -6.998    -0.137    -14.29
   ZnOHCl          3.196e-09   3.326e-09    -8.495    -8.478     0.017     (0)  
   HCl             7.425e-10   8.799e-10    -9.129    -9.056     0.074     20.36
   ZnCl2           6.965e-10   7.249e-10    -9.157    -9.140     0.017    102.03
   MnCl3-          4.189e-10   3.134e-10    -9.378    -9.504    -0.126     44.15
   CuCl+           3.758e-10   2.740e-10    -9.425    -9.562    -0.137      1.09
   ZnCl3-          7.682e-12   5.601e-12   -11.114   -11.252    -0.137     16.01
   CuCl2           9.738e-13   1.013e-12   -12.012   -11.994     0.017     31.02
   ZnCl4-2         6.175e-14   1.933e-14   -13.209   -13.714    -0.504    147.17
   FeCl+2          2.657e-15   8.320e-16   -14.576   -15.080    -0.504     (0)  
   FeCl2+          3.421e-17   2.559e-17   -16.466   -16.592    -0.126     (0)  
   CuCl3-          3.397e-17   2.476e-17   -16.469   -16.606    -0.137     (0)  
   FeCl3           1.694e-20   1.763e-20   -19.771   -19.754     0.017     (0)  
   CuCl4-2         2.730e-21   8.548e-22   -20.564   -21.068    -0.504     (0)  
Cu(1)         2.164e-05
   CuCl2-          1.975e-05   1.440e-05    -4.704    -4.842    -0.137     (0)  
   Cu+             1.382e-06   9.601e-07    -5.860    -6.018    -0.158     (0)  
   CuCl3-2         5.020e-07   1.572e-07    -6.299    -6.804    -0.504     (0)  
Cu(2)         3.129e-07
   CuHCO3+         1.168e-07   8.790e-08    -6.933    -7.056    -0.123     (0)  
   CuCO3           1.144e-07   1.191e-07    -6.941    -6.924     0.017     (0)  
   Cu+2            4.327e-08   1.478e-08    -7.364    -7.830    -0.466    -25.80
   CuSO4           3.468e-08   3.609e-08    -7.460    -7.443     0.017     13.09
   Cu(OH)2         2.146e-09   2.234e-09    -8.668    -8.651     0.017     (0)  
   Cu(CO3)2-2      7.008e-10   2.250e-10    -9.154    -9.648    -0.494     (0)  
   CuOH+           5.452e-10   3.975e-10    -9.263    -9.401    -0.137     (0)  
   CuCl+           3.758e-10   2.740e-10    -9.425    -9.562    -0.137      1.09
   CuCl2           9.738e-13   1.013e-12   -12.012   -11.994     0.017     31.02
   Cu2(OH)2+2      2.154e-13   6.915e-14   -12.667   -13.160    -0.494     (0)  
   Cu(OH)3-        4.809e-16   3.620e-16   -15.318   -15.441    -0.123     (0)  
   CuCl3-          3.397e-17   2.476e-17   -16.469   -16.606    -0.137     (0)  
   CuCl4-2         2.730e-21   8.548e-22   -20.564   -21.068    -0.504     (0)  
   Cu(OH)4-2       6.051e-22   1.942e-22   -21.218   -21.712    -0.494     (0)  
   Cu(HS)3-        0.000e+00   0.000e+00   -82.019   -82.143    -0.123     (0)  
Fe(2)         3.419e-02
   Fe+2            1.517e-02   5.184e-03    -1.819    -2.285    -0.466    -21.30
   FeSO4           1.059e-02   1.102e-02    -1.975    -1.958     0.017     30.28
   FeHCO3+         8.171e-03   6.150e-03    -2.088    -2.211    -0.123     (0)  
   FeCO3           1.793e-04   1.866e-04    -3.746    -3.729     0.017     (0)  
   FeCl+           6.547e-05   4.928e-05    -4.184    -4.307    -0.123     (0)  
   FeOH+           5.893e-06   4.409e-06    -5.230    -5.356    -0.126     (0)  
   FeHSO4+         3.570e-08   2.687e-08    -7.447    -7.571    -0.123     (0)  
   Fe(OH)2         9.697e-11   1.009e-10   -10.013    -9.996     0.017     (0)  
   Fe(OH)3-        1.348e-14   1.008e-14   -13.870   -13.996    -0.126     (0)  
   Fe(HS)2         0.000e+00   0.000e+00   -60.161   -60.144     0.017     (0)  
   Fe(HS)3-        0.000e+00   0.000e+00   -91.387   -91.511    -0.123     (0)  
Fe(3)         1.028e-07
   Fe(OH)2+        8.193e-08   6.185e-08    -7.087    -7.209    -0.122     (0)  
   Fe(OH)3         2.059e-08   2.143e-08    -7.686    -7.669     0.017     (0)  
   FeOH+2          2.218e-10   6.946e-11    -9.654   -10.158    -0.504     (0)  
   Fe(OH)4-        6.962e-11   5.256e-11   -10.157   -10.279    -0.122     (0)  
   FeSO4+          7.012e-13   5.245e-13   -12.154   -12.280    -0.126     (0)  
   Fe(SO4)2-       1.823e-13   1.372e-13   -12.739   -12.863    -0.123     (0)  
   Fe+3            2.874e-14   4.000e-15   -13.541   -14.398    -0.856     (0)  
   FeCl+2          2.657e-15   8.320e-16   -14.576   -15.080    -0.504     (0)  
   FeCl2+          3.421e-17   2.559e-17   -16.466   -16.592    -0.126     (0)  
   Fe2(OH)2+4      1.223e-17   1.298e-19   -16.913   -18.887    -1.974     (0)  
   FeHSO4+2        1.623e-18   5.209e-19   -17.790   -18.283    -0.494     (0)  
   FeCl3           1.694e-20   1.763e-20   -19.771   -19.754     0.017     (0)  
   Fe3(OH)4+5      2.038e-21   1.678e-24   -20.691   -23.775    -3.084     (0)  
H(0)          2.861e-18
   H2              1.430e-18   1.491e-18   -17.845   -17.826     0.018     14.99
K             2.034e-04
   K+              1.746e-04   1.262e-04    -3.758    -3.899    -0.141      9.32
   KSO4-           2.820e-05   2.296e-05    -4.550    -4.639    -0.089     27.99
   KHCO3           6.427e-07   6.688e-07    -6.192    -6.175     0.017     21.42
Mg            1.607e-02
   MgSO4           7.458e-03   8.078e-03    -2.127    -2.093     0.035     -0.40
   Mg+2            7.270e-03   2.580e-03    -2.138    -2.588    -0.450    -20.97
   Mg(SO4)2-2      8.479e-04   3.182e-04    -3.072    -3.497    -0.426     44.68
   MgHCO3+         4.912e-04   3.581e-04    -3.309    -3.446    -0.137      5.70
   MgCO3           3.549e-06   3.693e-06    -5.450    -5.433     0.017    -17.09
   MgOH+           3.263e-08   2.519e-08    -7.486    -7.599    -0.112     (0)  
Mn(2)         9.422e-03
   Mn+2            5.733e-03   1.959e-03    -2.242    -2.708    -0.466    -17.67
   MnHCO3+         2.769e-03   2.071e-03    -2.558    -2.684    -0.126     (0)  
   MnSO4           6.231e-04   5.993e-04    -3.205    -3.222    -0.017     17.15
   MnCO3           2.243e-04   2.334e-04    -3.649    -3.632     0.017     (0)  
   MnCl+           7.346e-05   5.495e-05    -4.134    -4.260    -0.126     -2.89
   MnOH+           1.810e-07   1.354e-07    -6.742    -6.868    -0.126     (0)  
   MnCl2           1.587e-07   1.652e-07    -6.799    -6.782     0.017     85.89
   MnCl3-          4.189e-10   3.134e-10    -9.378    -9.504    -0.126     44.15
   Mn(OH)3-        8.071e-19   6.038e-19   -18.093   -18.219    -0.126     (0)  
Mn(3)         3.514e-27
   Mn+3            3.514e-27   4.891e-28   -26.454   -27.311    -0.856     (0)  
Na            9.562e-03
   Na+             8.614e-03   6.504e-03    -2.065    -2.187    -0.122     -0.97
   NaSO4-          9.111e-04   6.833e-04    -3.040    -3.165    -0.125     18.98
   NaHCO3          3.591e-05   3.814e-05    -4.445    -4.419     0.026     17.66
   Na2SO4          2.092e-09   2.167e-09    -8.680    -8.664     0.015     47.96
O(0)          0.000e+00
   O2              0.000e+00   0.000e+00   -56.729   -56.712     0.017     30.40
S(-2)         1.777e-33
   H2S             1.229e-33   1.279e-33   -32.911   -32.893     0.017     36.27
   HS-             5.488e-34   3.943e-34   -33.261   -33.404    -0.144     20.97
   S-2             4.101e-40   1.284e-40   -39.387   -39.891    -0.504     (0)  
   Zn(HS)2         0.000e+00   0.000e+00   -57.151   -57.134     0.017     (0)  
   Fe(HS)2         0.000e+00   0.000e+00   -60.161   -60.144     0.017     (0)  
   (H2S)2          0.000e+00   0.000e+00   -67.082   -67.065     0.017     30.09
   Cu(HS)3-        0.000e+00   0.000e+00   -82.019   -82.143    -0.123     (0)  
   Zn(HS)3-        0.000e+00   0.000e+00   -89.255   -89.378    -0.123     (0)  
   Fe(HS)3-        0.000e+00   0.000e+00   -91.387   -91.511    -0.123     (0)  
S(6)          6.402e-02
   SO4-2           3.881e-02   1.196e-02    -1.411    -1.922    -0.511     15.44
   FeSO4           1.059e-02   1.102e-02    -1.975    -1.958     0.017     30.28
   MgSO4           7.458e-03   8.078e-03    -2.127    -2.093     0.035     -0.40
   CaSO4           3.894e-03   3.964e-03    -2.410    -2.402     0.008      7.22
   NaSO4-          9.111e-04   6.833e-04    -3.040    -3.165    -0.125     18.98
   Mg(SO4)2-2      8.479e-04   3.182e-04    -3.072    -3.497    -0.426     44.68
   MnSO4           6.231e-04   5.993e-04    -3.205    -3.222    -0.017     17.15
   KSO4-           2.820e-05   2.296e-05    -4.550    -4.639    -0.089     27.99
   ZnSO4           1.134e-05   1.180e-05    -4.945    -4.928     0.017      6.48
   HSO4-           5.729e-07   4.312e-07    -6.242    -6.365    -0.123     40.62
   AlSO4+          1.660e-07   1.227e-07    -6.780    -6.911    -0.131     (0)  
   Zn(SO4)2-2      6.424e-08   1.095e-08    -7.192    -7.960    -0.768     45.25
   Al(SO4)2-       6.278e-08   4.639e-08    -7.202    -7.334    -0.131     (0)  
   FeHSO4+         3.570e-08   2.687e-08    -7.447    -7.571    -0.123     (0)  
   CuSO4           3.468e-08   3.609e-08    -7.460    -7.443     0.017     13.09
   CaHSO4+         1.637e-08   1.232e-08    -7.786    -7.909    -0.123     (0)  
   Na2SO4          2.092e-09   2.167e-09    -8.680    -8.664     0.015     47.96
   FeSO4+          7.012e-13   5.245e-13   -12.154   -12.280    -0.126     (0)  
   Fe(SO4)2-       1.823e-13   1.372e-13   -12.739   -12.863    -0.123     (0)  
   AlHSO4+2        1.257e-14   4.034e-15   -13.901   -14.394    -0.494     (0)  
   FeHSO4+2        1.623e-18   5.209e-19   -17.790   -18.283    -0.494     (0)  
Zn            4.137e-05
   Zn+2            1.732e-05   5.422e-06    -4.762    -5.266    -0.504    -24.53
   ZnSO4           1.134e-05   1.180e-05    -4.945    -4.928     0.017      6.48
   ZnHCO3+         1.076e-05   8.099e-06    -4.968    -5.092    -0.123     (0)  
   ZnCO3           1.560e-06   1.623e-06    -5.807    -5.790     0.017     (0)  
   Zn(CO3)2-2      1.622e-07   5.207e-08    -6.790    -7.283    -0.494     (0)  
   ZnCl+           1.379e-07   1.005e-07    -6.861    -6.998    -0.137    -14.29
   Zn(SO4)2-2      6.424e-08   1.095e-08    -7.192    -7.960    -0.768     45.25
   ZnOH+           2.124e-08   1.599e-08    -7.673    -7.796    -0.123     (0)  
   ZnOHCl          3.196e-09   3.326e-09    -8.495    -8.478     0.017     (0)  
   ZnCl2           6.965e-10   7.249e-10    -9.157    -9.140     0.017    102.03
   Zn(OH)2         4.744e-10   4.937e-10    -9.324    -9.307     0.017     (0)  
   ZnCl3-          7.682e-12   5.601e-12   -11.114   -11.252    -0.137     16.01
   ZnCl4-2         6.175e-14   1.933e-14   -13.209   -13.714    -0.504    147.17
   Zn(OH)3-        5.578e-15   4.199e-15   -14.254   -14.377    -0.123     (0)  
   Zn(OH)4-2       5.575e-21   1.790e-21   -20.254   -20.747    -0.494     (0)  
   Zn(HS)2         0.000e+00   0.000e+00   -57.151   -57.134     0.017     (0)  
   Zn(HS)3-        0.000e+00   0.000e+00   -89.255   -89.378    -0.123     (0)  

------------------------------Saturation indices-------------------------------

  Phase               SI** log IAP   log K(298 K,   1 atm)

  Al(OH)3(a)       -0.00     10.80   10.80  Al(OH)3
  AlOHSO4          -1.78     -3.98   -2.20  AlOHSO4
  Alunite           6.77      5.37   -1.40  KAl3(SO4)2(OH)6
  Anhydrite        -0.23     -4.55   -4.31  CaSO4
  Aragonite        -0.11     -8.45   -8.34  CaCO3
  Arcanite         -7.84     -9.72   -1.88  K2SO4
  Calcite           0.00     -8.45   -8.45  CaCO3
  CH4(g)          -33.51    -36.32   -2.80  CH4
  CO2(g)           -0.54     -2.00   -1.47  CO2
  Dolomite          0.22    -16.86  -17.08  CaMg(CO3)2
  Epsomite         -2.78     -4.52   -1.74  MgSO4:7H2O
  Fe(OH)3           0.00      4.89    4.89  Fe(OH)3
  Fe(OH)3(a)        0.00      4.89    4.89  Fe(OH)3
  FeS(ppt)        -25.34    -29.26   -3.92  FeS
  Gibbsite          2.69     10.80    8.11  Al(OH)3
  Goethite          5.89      4.89   -1.00  FeOOH
  Gypsum            0.00     -4.55   -4.55  CaSO4:2H2O
  H2(g)           -14.73    -17.83   -3.10  H2
  H2O(g)           -1.50     -0.00    1.50  H2O
  H2S(g)          -31.90    -39.83   -7.94  H2S
  Halite           -5.92     -4.35    1.57  NaCl
  Hausmannite     -15.90     45.13   61.03  Mn3O4
  Hematite         13.79      9.79   -4.01  Fe2O3
  Hexahydrite      -2.95     -4.52   -1.57  MgSO4:6H2O
  Jarosite-K       -3.15    -12.36   -9.21  KFe3(SO4)2(OH)6
  Kieserite        -3.35     -4.51   -1.16  MgSO4:H2O
  Mackinawite     -24.61    -29.26   -4.65  FeS
  Manganite        -7.85     17.49   25.34  MnOOH
  Melanterite      -2.01     -4.22   -2.21  FeSO4:7H2O
  Mirabilite       -5.60     -6.31   -0.71  Na2SO4:10H2O
  MnO2            -16.55     24.83   41.38  MnO2
  O2(g)           -53.82    -56.71   -2.89  O2
  Pyrite          -35.94    -54.42  -18.48  FeS2
  Pyrochroite      -5.05     10.15   15.20  Mn(OH)2
  Pyrolusite      -16.55     24.83   41.38  MnO2:H2O
  Rhodochrosite     2.60     -8.53  -11.13  MnCO3
  Siderite          2.78     -8.11  -10.89  FeCO3
  Smithsonite      -1.09    -11.09  -10.00  ZnCO3
  Sphalerite      -20.62    -32.24  -11.62  ZnS
  Sulfur          -23.10    -18.22    4.88  S
  Sylvite          -6.96     -6.06    0.90  KCl
  Thenardite       -6.95     -6.30    0.65  Na2SO4
  Zn(OH)2(e)       -3.91      7.59   11.50  Zn(OH)2

**For a gas, SI = log10(fugacity). Fugacity = pressure * phi / 1 atm.
  For ideal gases, phi = 1.


Cell 3.

Using solution 3.	Solution after simulation 1.
Using surface 3.	
Using pure phase assemblage 3.	Pure-phase assemblage after simulation 1.

-------------------------------Phase assemblage--------------------------------

                                                      Moles in assemblage
Phase               SI  log IAP  log K(T, P)   Initial       Final       Delta

Al(OH)3(a)       -0.09    10.71     10.80    1.141e-06           0  -1.141e-06
AlOHSO4          -1.28    -3.48     -2.20    0.000e+00           0   0.000e+00
Calcite           0.00    -8.45     -8.45    1.480e-01   1.460e-01  -2.005e-03
Fe(OH)3           0.00     4.89      4.89    7.300e-01   7.300e-01  -1.266e-08
Gypsum            0.00    -4.55     -4.55    0.000e+00   1.960e-03   1.960e-03
MnO2              0.00    41.38     41.38    4.500e-02   4.500e-02  -3.986e-11

------------------------------Surface composition------------------------------

Diffuse Double Layer Surface-Complexation Model

Surf          
	  5.173e-02  Surface charge, eq
	  1.280e-01  sigma, C/m²
	  9.519e-02  psi, V
	 -3.705e+00  -F*psi/RT
	  2.460e-02  exp(-F*psi/RT)
	  6.000e+02  specific area, m²/g
	  3.900e+04  m² for   6.500e+01 g


Surf          
	  1.500e-01  moles
	                                   Mole                     Log
	Species               Moles    Fraction    Molality    Molality

	SurfOH            8.894e-02       0.593   8.932e-02      -1.049
	SurfOH2+          3.883e-02       0.259   3.900e-02      -1.409
	SurfOMn+          1.750e-02       0.117   1.758e-02      -1.755
	SurfO-            4.666e-03       0.031   4.686e-03      -2.329
[...]
Gypsum            0.00    -4.55     -4.55    8.156e-02   8.185e-02   2.948e-04
MnO2            -19.24    22.14     41.38    0.000e+00           0   0.000e+00

------------------------------Surface composition------------------------------

Diffuse Double Layer Surface-Complexation Model

Surf          
	  3.387e-02  Surface charge, eq
	  8.381e-02  sigma, C/m²
	  6.523e-02  psi, V
	 -2.539e+00  -F*psi/RT
	  7.895e-02  exp(-F*psi/RT)
	  6.000e+02  specific area, m²/g
	  3.900e+04  m² for   6.500e+01 g


Surf          
	  1.500e-01  moles
	                                   Mole                     Log
	Species               Moles    Fraction    Molality    Molality

	SurfOH            8.873e-02       0.592   8.879e-02      -1.052
	SurfOMn+          3.263e-02       0.218   3.266e-02      -1.486
	SurfO-            1.370e-02       0.091   1.371e-02      -1.863
	SurfOH2+          1.316e-02       0.088   1.317e-02      -1.880
	SurfOCu+          1.753e-03       0.012   1.754e-03      -2.756
	SurfOZn+          2.360e-05       0.000   2.362e-05      -4.627

-----------------------------Solution composition------------------------------

	Elements           Molality       Moles

	Al                2.062e-05   2.061e-05
	C                 1.031e-02   1.030e-02
	Ca                1.026e-02   1.026e-02
	Cl                9.646e-03   9.640e-03
	Cu                6.777e-04   6.773e-04
	Fe                5.289e-02   5.285e-02
	K                 2.031e-04   2.029e-04
	Mg                1.604e-02   1.603e-02
	Mn                7.081e-04   7.076e-04
	Na                9.545e-03   9.538e-03
	S                 8.197e-02   8.191e-02
	Zn                2.126e-07   2.125e-07

----------------------------Description of solution----------------------------

                                       pH  =   7.016      Charge balance
                                       pe  =  -1.089      Adjusted to redox equilibrium
      Specific Conductance (µS/cm,  25°C)  = 10319
                          Density (g/cm³)  =   1.00900
                               Volume (L)  =   1.00314
                        Viscosity (mPa s)  =   0.91248
                        Activity of water  =   0.997
                 Ionic strength (mol/kgw)  =   1.900e-01
                       Mass of water (kg)  =   9.993e-01
                 Total alkalinity (eq/kg)  =   1.008e-02
                       Total CO2 (mol/kg)  =   1.031e-02
                         Temperature (°C)  =  25.00
                  Electrical balance (eq)  =  -1.336e-02
 Percent error, 100*(Cat-|An|)/(Cat+|An|)  =  -6.55
                               Iterations  =   4
                                  Total H  = 1.109423e+02
                                  Total O  = 5.582444e+01

----------------------------Distribution of species----------------------------

                                               Log       Log       Log    mole V
   Species          Molality    Activity  Molality  Activity     Gamma   cm³/mol

   OH-             1.473e-07   1.047e-07    -6.832    -6.980    -0.148     -3.52
   H+              1.205e-07   9.638e-08    -6.919    -7.016    -0.097      0.00
   H2O             5.551e+01   9.974e-01     1.744    -0.001     0.000     18.07
Al            2.062e-05
   Al(OH)4-        1.927e-05   1.412e-05    -4.715    -4.850    -0.135     (0)  
   Al(OH)3         6.928e-07   7.238e-07    -6.159    -6.140     0.019     (0)  
   Al(OH)2+        6.335e-07   4.747e-07    -6.198    -6.324    -0.125     (0)  
   AlOH+2          1.857e-08   5.852e-09    -7.731    -8.233    -0.501    -26.95
   AlSO4+          3.363e-09   2.463e-09    -8.473    -8.608    -0.135     (0)  
   Al(SO4)2-       1.455e-09   1.066e-09    -8.837    -8.972    -0.135     (0)  
   Al+3            4.261e-10   5.693e-11    -9.370   -10.245    -0.874    -40.84
   AlHSO4+2        6.704e-17   2.105e-17   -16.174   -16.677    -0.503     (0)  
C(-4)         6.938e-27
   CH4             6.938e-27   7.248e-27   -26.159   -26.140     0.019     35.46
C(4)          1.031e-02
   HCO3-           4.694e-03   3.529e-03    -2.328    -2.452    -0.124     25.89
   FeHCO3+         4.252e-03   3.183e-03    -2.371    -2.497    -0.126     (0)  
   CO2             7.449e-04   7.667e-04    -3.128    -3.115     0.013     34.79
   FeCO3           3.556e-04   3.715e-04    -3.449    -3.430     0.019     (0)  
   MgHCO3+         1.377e-04   9.944e-05    -3.861    -4.002    -0.141      5.71
   MnHCO3+         7.576e-05   5.622e-05    -4.121    -4.250    -0.130     (0)  
   MnCO3           2.334e-05   2.438e-05    -4.632    -4.613     0.019     (0)  
   NaHCO3          1.042e-05   1.113e-05    -4.982    -4.953     0.029     17.66
   CaCO3           5.733e-06   5.989e-06    -5.242    -5.223     0.019    -14.60
   CO3-2           5.448e-06   1.717e-06    -5.264    -5.765    -0.501     -2.66
   MgCO3           3.777e-06   3.946e-06    -5.423    -5.404     0.019    -17.09
   KHCO3           1.852e-07   1.935e-07    -6.732    -6.713     0.019     21.42
   CuCO3           5.348e-08   5.587e-08    -7.272    -7.253     0.019     (0)  
   ZnHCO3+         1.884e-08   1.410e-08    -7.725    -7.851    -0.126     (0)  
   CuHCO3+         1.431e-08   1.072e-08    -7.844    -7.970    -0.126     (0)  
   ZnCO3           1.041e-08   1.087e-08    -7.983    -7.964     0.019     (0)  
   (CO2)2          9.284e-09   9.556e-09    -8.032    -8.020     0.013     68.75
   Zn(CO3)2-2      1.271e-09   3.992e-10    -8.896    -9.399    -0.503     (0)  
   CaHCO3+         8.460e-10   6.424e-10    -9.073    -9.192    -0.120      9.87
   Cu(CO3)2-2      3.845e-10   1.208e-10    -9.415    -9.918    -0.503     (0)  
Ca            1.026e-02
   Ca+2            6.370e-03   2.076e-03    -2.196    -2.683    -0.487    -17.23
   CaSO4           3.887e-03   3.963e-03    -2.410    -2.402     0.008      7.22
   CaCO3           5.733e-06   5.989e-06    -5.242    -5.223     0.019    -14.60
   CaOH+           4.764e-09   3.566e-09    -8.322    -8.448    -0.126     (0)  
   CaHSO4+         4.276e-09   3.201e-09    -8.369    -8.495    -0.126     (0)  
   CaHCO3+         8.460e-10   6.424e-10    -9.073    -9.192    -0.120      9.87
Cl            9.646e-03
   Cl-             8.286e-03   5.961e-03    -2.082    -2.225    -0.143     18.45
   CuCl2-          6.071e-04   4.384e-04    -3.217    -3.358    -0.141     (0)  
   FeCl+           9.915e-05   7.422e-05    -4.004    -4.129    -0.126     (0)  
   CuCl3-2         1.366e-05   4.142e-06    -4.865    -5.383    -0.518     (0)  
   MnCl+           5.850e-06   4.341e-06    -5.233    -5.362    -0.130     -2.88
   MnCl2           1.081e-08   1.130e-08    -7.966    -7.947     0.019     85.89
   ZnCl+           7.051e-10   5.092e-10    -9.152    -9.293    -0.141    -14.34
   HCl             1.643e-10   1.979e-10    -9.784    -9.704     0.081     20.36
   CuCl+           1.346e-10   9.721e-11    -9.871   -10.012    -0.141      1.12
   ZnOHCl          6.206e-11   6.483e-11   -10.207   -10.188     0.019     (0)  
   MnCl3-          2.499e-11   1.854e-11   -10.602   -10.732    -0.130     44.21
   ZnCl2           3.042e-12   3.178e-12   -11.517   -11.498     0.019    102.03
   CuCl2           2.979e-13   3.112e-13   -12.526   -12.507     0.019     31.02
   ZnCl3-          2.944e-14   2.126e-14   -13.531   -13.672    -0.141     15.89
   ZnCl4-2         2.094e-16   6.351e-17   -15.679   -16.197    -0.518    147.30
   FeCl+2          4.167e-17   1.264e-17   -16.380   -16.898    -0.518     (0)  
   CuCl3-          9.113e-18   6.582e-18   -17.040   -17.182    -0.141     (0)  
   FeCl2+          4.534e-19   3.365e-19   -18.343   -18.473    -0.130     (0)  
   CuCl4-2         6.484e-22   1.966e-22   -21.188   -21.706    -0.518     (0)  
   FeCl3           1.920e-22   2.006e-22   -21.717   -21.698     0.019     (0)  
Cu(1)         6.776e-04
   CuCl2-          6.071e-04   4.384e-04    -3.217    -3.358    -0.141     (0)  
   Cu+             5.688e-05   3.902e-05    -4.245    -4.409    -0.164     (0)  
   CuCl3-2         1.366e-05   4.142e-06    -4.865    -5.383    -0.518     (0)  
Cu(2)         1.166e-07
   CuCO3           5.348e-08   5.587e-08    -7.272    -7.253     0.019     (0)  
   Cu+2            1.823e-08   6.059e-09    -7.739    -8.218    -0.478    -25.77
   CuSO4           1.620e-08   1.693e-08    -7.790    -7.771     0.019     13.09
   CuHCO3+         1.431e-08   1.072e-08    -7.844    -7.970    -0.126     (0)  
   Cu(OH)2         1.298e-08   1.356e-08    -7.887    -7.868     0.019     (0)  
   CuOH+           8.682e-10   6.270e-10    -9.061    -9.203    -0.141     (0)  
   Cu(CO3)2-2      3.845e-10   1.208e-10    -9.415    -9.918    -0.503     (0)  
   CuCl+           1.346e-10   9.721e-11    -9.871   -10.012    -0.141      1.12
   Cu2(OH)2+2      5.478e-13   1.720e-13   -12.261   -12.764    -0.503     (0)  
   CuCl2           2.979e-13   3.112e-13   -12.526   -12.507     0.019     31.02
   Cu(OH)3-        1.129e-14   8.454e-15   -13.947   -14.073    -0.126     (0)  
   CuCl3-          9.113e-18   6.582e-18   -17.040   -17.182    -0.141     (0)  
   Cu(OH)4-2       5.558e-20   1.746e-20   -19.255   -19.758    -0.503     (0)  
   CuCl4-2         6.484e-22   1.966e-22   -21.188   -21.706    -0.518     (0)  
   Cu(HS)3-        0.000e+00   0.000e+00   -50.119   -50.244    -0.126     (0)  
Fe(2)         5.289e-02
   Fe+2            2.713e-02   9.020e-03    -1.566    -2.045    -0.478    -21.26
   FeSO4           2.101e-02   2.195e-02    -1.678    -1.659     0.019     30.28
   FeHCO3+         4.252e-03   3.183e-03    -2.371    -2.497    -0.126     (0)  
   FeCO3           3.556e-04   3.715e-04    -3.449    -3.430     0.019     (0)  
   FeCl+           9.915e-05   7.422e-05    -4.004    -4.129    -0.126     (0)  
   FeOH+           3.978e-05   2.952e-05    -4.400    -4.530    -0.130     (0)  
   FeHSO4+         1.858e-08   1.391e-08    -7.731    -7.857    -0.126     (0)  
   Fe(OH)2         2.489e-09   2.600e-09    -8.604    -8.585     0.019     (0)  
   Fe(OH)3-        1.347e-12   9.997e-13   -11.871   -12.000    -0.130     (0)  
   Fe(HS)2         3.997e-39   4.176e-39   -38.398   -38.379     0.019     (0)  
   Fe(HS)3-        0.000e+00   0.000e+00   -58.859   -58.984    -0.126     (0)  
Fe(3)         4.225e-08
   Fe(OH)2+        2.145e-08   1.607e-08    -7.669    -7.794    -0.125     (0)  
   Fe(OH)3         2.051e-08   2.143e-08    -7.688    -7.669     0.019     (0)  
   Fe(OH)4-        2.699e-10   2.023e-10    -9.569    -9.694    -0.125     (0)  
   FeOH+2          1.547e-11   4.691e-12   -10.811   -11.329    -0.518     (0)  
   FeSO4+          1.419e-14   1.053e-14   -13.848   -13.977    -0.130     (0)  
   Fe(SO4)2-       4.212e-15   3.153e-15   -14.375   -14.501    -0.126     (0)  
   Fe+3            5.255e-16   7.020e-17   -15.279   -16.154    -0.874     (0)  
   FeCl+2          4.167e-17   1.264e-17   -16.380   -16.898    -0.518     (0)  
   FeCl2+          4.534e-19   3.365e-19   -18.343   -18.473    -0.130     (0)  
   Fe2(OH)2+4      6.088e-20   5.922e-22   -19.216   -21.228    -2.012     (0)  
   FeHSO4+2        8.656e-21   2.718e-21   -20.063   -20.566    -0.503     (0)  
   FeCl3           1.920e-22   2.006e-22   -21.717   -21.698     0.019     (0)  
   Fe3(OH)4+5      2.769e-24   1.989e-27   -23.558   -26.701    -3.144     (0)  
H(0)          1.892e-15
   H2              9.459e-16   9.903e-16   -15.024   -15.004     0.020     14.99
K             2.031e-04
   K+              1.715e-04   1.228e-04    -3.766    -3.911    -0.145      9.33
   KSO4-           3.139e-05   2.556e-05    -4.503    -4.592    -0.089     28.37
   KHCO3           1.852e-07   1.935e-07    -6.732    -6.713     0.019     21.42
Mg            1.604e-02
   MgSO4           7.906e-03   8.629e-03    -2.102    -2.064     0.038     -0.40
   Mg+2            6.937e-03   2.408e-03    -2.159    -2.618    -0.459    -20.94
   Mg(SO4)2-2      1.059e-03   3.889e-04    -2.975    -3.410    -0.435     44.94
   MgHCO3+         1.377e-04   9.944e-05    -3.861    -4.002    -0.141      5.71
   MgCO3           3.777e-06   3.946e-06    -5.423    -5.404     0.019    -17.09
   MgOH+           1.180e-07   9.049e-08    -6.928    -7.043    -0.115     (0)  
Mn(2)         7.081e-04
   Mn+2            5.377e-04   1.788e-04    -3.269    -3.748    -0.478    -17.59
   MnHCO3+         7.576e-05   5.622e-05    -4.121    -4.250    -0.130     (0)  
   MnSO4           6.533e-05   6.259e-05    -4.185    -4.204    -0.019     17.15
   MnCO3           2.334e-05   2.438e-05    -4.632    -4.613     0.019     (0)  
   MnCl+           5.850e-06   4.341e-06    -5.233    -5.362    -0.130     -2.88
   MnOH+           6.408e-08   4.755e-08    -7.193    -7.323    -0.130     (0)  
   MnCl2           1.081e-08   1.130e-08    -7.966    -7.947     0.019     85.89
   MnCl3-          2.499e-11   1.854e-11   -10.602   -10.732    -0.130     44.21
   Mn(OH)3-        4.232e-18   3.140e-18   -17.374   -17.503    -0.130     (0)  
Mn(3)         3.370e-30
   Mn+3            3.370e-30   4.502e-31   -29.472   -30.347    -0.874     (0)  
Na            9.545e-03
   Na+             8.505e-03   6.382e-03    -2.070    -2.195    -0.125     -0.95
   NaSO4-          1.029e-03   7.671e-04    -2.987    -3.115    -0.128     19.10
   NaHCO3          1.042e-05   1.113e-05    -4.982    -4.953     0.029     17.66
   Na2SO4          2.296e-09   2.387e-09    -8.639    -8.622     0.017     47.96
O(0)          0.000e+00
   O2              0.000e+00   0.000e+00   -62.375   -62.356     0.019     30.40
S(-2)         5.044e-23
   HS-             3.205e-23   2.279e-23   -22.494   -22.642    -0.148     20.98
   H2S             1.839e-23   1.921e-23   -22.736   -22.717     0.019     36.27
   S-2             9.419e-29   2.856e-29   -28.026   -28.544    -0.518     (0)  
   Zn(HS)2         1.375e-38   1.436e-38   -37.862   -37.843     0.019     (0)  
   Fe(HS)2         3.997e-39   4.176e-39   -38.398   -38.379     0.019     (0)  
   (H2S)2          0.000e+00   0.000e+00   -46.730   -46.711     0.019     30.09
   Cu(HS)3-        0.000e+00   0.000e+00   -50.119   -50.244    -0.126     (0)  
   Fe(HS)3-        0.000e+00   0.000e+00   -58.859   -58.984    -0.126     (0)  
   Zn(HS)3-        0.000e+00   0.000e+00   -59.199   -59.325    -0.126     (0)  
S(6)          8.197e-02
   SO4-2           4.592e-02   1.368e-02    -1.338    -1.864    -0.526     15.50
   FeSO4           2.101e-02   2.195e-02    -1.678    -1.659     0.019     30.28
   MgSO4           7.906e-03   8.629e-03    -2.102    -2.064     0.038     -0.40
   CaSO4           3.887e-03   3.963e-03    -2.410    -2.402     0.008      7.22
   Mg(SO4)2-2      1.059e-03   3.889e-04    -2.975    -3.410    -0.435     44.94
   NaSO4-          1.029e-03   7.671e-04    -2.987    -3.115    -0.128     19.10
   MnSO4           6.533e-05   6.259e-05    -4.185    -4.204    -0.019     17.15
   KSO4-           3.139e-05   2.556e-05    -4.503    -4.592    -0.089     28.37
   HSO4-           1.713e-07   1.282e-07    -6.766    -6.892    -0.126     40.64
   ZnSO4           7.565e-08   7.903e-08    -7.121    -7.102     0.019      6.48
   FeHSO4+         1.858e-08   1.391e-08    -7.731    -7.857    -0.126     (0)  
   CuSO4           1.620e-08   1.693e-08    -7.790    -7.771     0.019     13.09
   CaHSO4+         4.276e-09   3.201e-09    -8.369    -8.495    -0.126     (0)  
   AlSO4+          3.363e-09   2.463e-09    -8.473    -8.608    -0.135     (0)  
   Na2SO4          2.296e-09   2.387e-09    -8.639    -8.622     0.017     47.96
   Al(SO4)2-       1.455e-09   1.066e-09    -8.837    -8.972    -0.135     (0)  
   Zn(SO4)2-2      5.308e-10   8.395e-11    -9.275   -10.076    -0.801     45.27
   FeSO4+          1.419e-14   1.053e-14   -13.848   -13.977    -0.130     (0)  
   Fe(SO4)2-       4.212e-15   3.153e-15   -14.375   -14.501    -0.126     (0)  
   AlHSO4+2        6.704e-17   2.105e-17   -16.174   -16.677    -0.503     (0)  
   FeHSO4+2        8.656e-21   2.718e-21   -20.063   -20.566    -0.503     (0)  
Zn            2.126e-07
   Zn+2            1.047e-07   3.174e-08    -6.980    -7.498    -0.518    -24.50
   ZnSO4           7.565e-08   7.903e-08    -7.121    -7.102     0.019      6.48
   ZnHCO3+         1.884e-08   1.410e-08    -7.725    -7.851    -0.126     (0)  
   ZnCO3           1.041e-08   1.087e-08    -7.983    -7.964     0.019     (0)  
   Zn(CO3)2-2      1.271e-09   3.992e-10    -8.896    -9.399    -0.503     (0)  
   ZnCl+           7.051e-10   5.092e-10    -9.152    -9.293    -0.141    -14.34
   Zn(SO4)2-2      5.308e-10   8.395e-11    -9.275   -10.076    -0.801     45.27
   ZnOH+           4.811e-10   3.601e-10    -9.318    -9.444    -0.126     (0)  
   ZnOHCl          6.206e-11   6.483e-11   -10.207   -10.188     0.019     (0)  
   Zn(OH)2         4.096e-11   4.279e-11   -10.388   -10.369     0.019     (0)  
   ZnCl2           3.042e-12   3.178e-12   -11.517   -11.498     0.019    102.03
   ZnCl3-          2.944e-14   2.126e-14   -13.531   -13.672    -0.141     15.89
   Zn(OH)3-        1.871e-15   1.400e-15   -14.728   -14.854    -0.126     (0)  
   ZnCl4-2         2.094e-16   6.351e-17   -15.679   -16.197    -0.518    147.30
   Zn(OH)4-2       7.314e-21   2.297e-21   -20.136   -20.639    -0.503     (0)  
   Zn(HS)2         1.375e-38   1.436e-38   -37.862   -37.843     0.019     (0)  
   Zn(HS)3-        0.000e+00   0.000e+00   -59.199   -59.325    -0.126     (0)  

------------------------------Saturation indices-------------------------------

  Phase               SI** log IAP   log K(298 K,   1 atm)

  Al(OH)3(a)       -0.00     10.80   10.80  Al(OH)3
  AlOHSO4          -2.89     -5.09   -2.20  AlOHSO4
  Alunite           5.12      3.72   -1.40  KAl3(SO4)2(OH)6
  Anhydrite        -0.23     -4.55   -4.31  CaSO4
  Aragonite        -0.11     -8.45   -8.34  CaCO3
  Arcanite         -7.81     -9.69   -1.88  K2SO4
  Calcite           0.00     -8.45   -8.45  CaCO3
  CH4(g)          -23.34    -26.14   -2.80  CH4
  CO2(g)           -1.65     -3.12   -1.47  CO2
  Dolomite          0.25    -16.83  -17.08  CaMg(CO3)2
  Epsomite         -2.75     -4.49   -1.74  MgSO4:7H2O
  Fe(OH)3          -0.00      4.89    4.89  Fe(OH)3
  Fe(OH)3(a)       -0.00      4.89    4.89  Fe(OH)3
  FeS(ppt)        -13.76    -17.67   -3.92  FeS
  Gibbsite          2.69     10.80    8.11  Al(OH)3
  Goethite          5.89      4.89   -1.00  FeOOH
  Gypsum            0.00     -4.55   -4.55  CaSO4:2H2O
  H2(g)           -11.90    -15.00   -3.10  H2
  H2O(g)           -1.50     -0.00    1.50  H2O
  H2S(g)          -21.72    -29.66   -7.94  H2S
  Halite           -5.99     -4.42    1.57  NaCl
  Hausmannite     -18.33     42.70   61.03  Mn3O4
  Hematite         13.79      9.79   -4.01  Fe2O3
  Hexahydrite      -2.92     -4.49   -1.57  MgSO4:6H2O
  Jarosite-K       -4.80    -14.01   -9.21  KFe3(SO4)2(OH)6
  Kieserite        -3.32     -4.48   -1.16  MgSO4:H2O
  Mackinawite     -13.02    -17.67   -4.65  FeS
  Manganite        -9.13     16.21   25.34  MnOOH
  Melanterite      -1.71     -3.92   -2.21  FeSO4:7H2O
  Mirabilite       -5.56     -6.27   -0.71  Na2SO4:10H2O
  MnO2            -19.24     22.14   41.38  MnO2
  O2(g)           -59.46    -62.36   -2.89  O2
  Pyrite          -17.00    -35.48  -18.48  FeS2
  Pyrochroite      -4.92     10.28   15.20  Mn(OH)2
  Pyrolusite      -19.24     22.14   41.38  MnO2:H2O
  Rhodochrosite     1.62     -9.51  -11.13  MnCO3
  Siderite          3.08     -7.81  -10.89  FeCO3
  Smithsonite      -3.26    -13.26  -10.00  ZnCO3
  Sphalerite      -11.51    -23.12  -11.62  ZnS
  Sulfur          -15.74    -10.86    4.88  S
  Sylvite          -7.04     -6.14    0.90  KCl
  Thenardite       -6.90     -6.25    0.65  Na2SO4
  Zn(OH)2(e)       -4.97      6.53   11.50  Zn(OH)2

**For a gas, SI = log10(fugacity). Fugacity = pressure * phi / 1 atm.
  For ideal gases, phi = 1.

------------------
End of simulation.
------------------

------------------------------------
Reading input data for simulation 2.
------------------------------------

