WARNING: Database file from DATABASE keyword is used; command line argument ignored.
   Input file: transport.dl
  Output file: transport.dl.out
Database file: ../database/phreeqc.dat

------------------
Reading data base.
------------------

	SOLUTION_MASTER_SPECIES
	SOLUTION_SPECIES
	PHASES
	GAS_BINARY_PARAMETERS
	EXCHANGE_MASTER_SPECIES
	EXCHANGE_SPECIES
	SURFACE_MASTER_SPECIES
	SURFACE_SPECIES
	MEAN_GAMMAS
	RATES
	END
------------------------------------
Reading input data for simulation 1.
------------------------------------

	DATABASE ../database/phreeqc.dat
	SELECTED_OUTPUT 101
	    file                 transport.dl_101.sel
	USER_PUNCH 101
	    headings Mu SC
	    start
	10 PUNCH STR_F$(MU, 20, 12)
	20 PUNCH STR_F$(SC, 20, 10)
	    end
	knobs
		logfile
	PRINT
		status false
	SOLUTION 0
		ph	3.3
		temp	25
		units mmol/l
		Ca	11.6
		Mg	15.8
		Na	9.4
		K	0.2
		Fe	52.4
		Mn	1.34
		Al	10.5
		Cu	2.4
		Zn	0.33
		S(6)	100 	charge
		Cl	9.5
		C(4)	0.1	CO2(g)  -3.5
	SOLUTION 1-5
		ph	7.19
		temp	25
		units mmol/l
		O(0)	0.22
		Ca	1.2	charge
		Mg	0.37
		Na	0.96
		K	0.03
		Fe	3.5e-7	mol/l
		Mn	1.0e-7	mol/l
		Al	1.8e-6  mol/l
		Cu	1.5e-7	mol/l
		Zn	2.5e-7	mol/l
		S(6)	0.7
		Cl	0.48
		Alkalinity	2.3
	SURFACE 1-5
		diffuse_layer  1e-9  # takes 10 time longer, calculates diffuse layer composition
		SurfOH	0.15	600.	65.
	PURE_PHASES 1-5
		MnO2		0.0	0.045
		Fe(OH)3		0.0	0.73
		Calcite		0.0	0.14
		Gypsum 		0.0	0.0
		Al(OH)3(a)	0.0	0.0
		AlOHSO4		0.0	0.0
	USE PURE_PHASES none
	USE SURFACE none
	ADVECTION
		cells 		5
		shifts		25
		print_frequency	5
	SURFACE_MASTER_SPECIES
		Surf	SurfOH
	SURFACE_SPECIES
		SurfOH = SurfOH
		log_k	0.0
		SurfOH  + H+ = SurfOH2+
		log_k	7.29
		SurfOH = SurfO- + H+
		log_k	-8.93
		SurfOH + Cu+2 = SurfOCu+ + H+
		log_k	0.6
		SurfOH + Zn+2 = SurfOZn+ + H+
		log_k	-1.99
		SurfOH + Mn+2 = SurfOMn+ + H+
		log_k	-2.6
	PHASES
		Fe(OH)3
		Fe(OH)3 + 3 H+ = Fe+3 + 3 H2O                                                 
		log_k	4.891
		MnO2
		MnO2 + 4 H+ + 2 e- = Mn+2 + 2 H2O                                          
		log_k		41.380
		delta_h	-65.110 kcal
		Al(OH)3(a)
		Al(OH)3 + 3H+ = Al+3 + 3H2O 
		log_k		10.8
		delta_h	-26.5 kcal
		AlOHSO4
		AlOHSO4 + H+ = Al+3 + SO4-2 + H2O 
		log_k	-2.2
	END
-------------------------------------------
Beginning of initial solution calculations.
-------------------------------------------

Initial solution 0.	

-----------------------------Solution composition------------------------------

	Elements           Molality       Moles

	Al                1.065e-02   1.065e-02
	C(4)              1.045e-05   1.045e-05  Equilibrium with CO2(g)
	Ca                1.177e-02   1.177e-02
	Cl                9.640e-03   9.640e-03
	Cu                2.435e-03   2.435e-03
	Fe                5.317e-02   5.317e-02
	K                 2.029e-04   2.029e-04
	Mg                1.603e-02   1.603e-02
	Mn                1.360e-03   1.360e-03
	Na                9.538e-03   9.538e-03
	S(6)              1.018e-01   1.018e-01  Charge balance
	Zn                3.348e-04   3.348e-04

----------------------------Description of solution----------------------------

                                       pH  =   3.300    
                                       pe  =   4.000    
      Specific Conductance (µS/cm,  25°C)  = 11032
                          Density (g/cm³)  =   1.01096
                               Volume (L)  =   1.00371
                        Viscosity (mPa s)  =   0.91378
                        Activity of water  =   0.997
                 Ionic strength (mol/kgw)  =   2.126e-01
                       Mass of water (kg)  =   1.000e+00
                 Total alkalinity (eq/kg)  =  -1.663e-03
                       Total CO2 (mol/kg)  =   1.045e-05
                         Temperature (°C)  =  25.00
                  Electrical balance (eq)  =   2.074e-14
 Percent error, 100*(Cat-|An|)/(Cat+|An|)  =   0.00
                               Iterations  =   9
                                  Total H  = 1.110141e+02
                                  Total O  = 5.591339e+01

----------------------------Distribution of species----------------------------

                                               Log       Log       Log    mole V
   Species          Molality    Activity  Molality  Activity     Gamma   cm³/mol

   H+              6.302e-04   5.012e-04    -3.200    -3.300    -0.100      0.00
   OH-             2.869e-11   2.014e-11   -10.542   -10.696    -0.154     -3.47
   H2O             5.551e+01   9.972e-01     1.744    -0.001     0.000     18.07
Al            1.065e-02
   AlSO4+          6.789e-03   4.920e-03    -2.168    -2.308    -0.140     (0)  
   Al(SO4)2-       2.974e-03   2.155e-03    -2.527    -2.666    -0.140     (0)  
   Al+3            8.830e-04   1.123e-04    -3.054    -3.950    -0.896    -40.80
   AlOH+2          7.306e-06   2.219e-06    -5.136    -5.654    -0.517    -26.92
   AlHSO4+2        7.135e-07   2.186e-07    -6.147    -6.660    -0.514     (0)  
   Al(OH)2+        4.662e-08   3.461e-08    -7.331    -7.461    -0.129     (0)  
   Al(OH)3         9.662e-12   1.015e-11   -11.015   -10.994     0.021     (0)  
   Al(OH)4-        5.250e-14   3.805e-14   -13.280   -13.420    -0.140     (0)  
C(4)          1.045e-05
   CO2             1.042e-05   1.076e-05    -4.982    -4.968     0.014     34.79
   HCO3-           1.278e-08   9.523e-09    -7.894    -8.021    -0.128     26.01
   FeHCO3+         1.242e-08   9.241e-09    -7.906    -8.034    -0.128     (0)  
   CuHCO3+         2.283e-09   1.698e-09    -8.642    -8.770    -0.128     (0)  
   MnHCO3+         4.465e-10   3.281e-10    -9.350    -9.484    -0.134     (0)  
   MgHCO3+         3.731e-10   2.663e-10    -9.428    -9.575    -0.146      5.72
   ZnHCO3+         9.187e-11   6.835e-11   -10.037   -10.165    -0.128     (0)  
   NaHCO3          2.767e-11   2.979e-11   -10.558   -10.526     0.032     17.66
   (CO2)2          1.823e-12   1.882e-12   -11.739   -11.725     0.014     68.75
   CuCO3           1.621e-12   1.703e-12   -11.790   -11.769     0.021     (0)  
   KHCO3           4.913e-13   5.160e-13   -12.309   -12.287     0.021     21.42
   FeCO3           1.975e-13   2.074e-13   -12.704   -12.683     0.021     (0)  
   MnCO3           2.606e-14   2.736e-14   -13.584   -13.563     0.021     (0)  
   ZnCO3           9.652e-15   1.014e-14   -14.015   -13.994     0.021     (0)  
   CaCO3           3.312e-15   3.478e-15   -14.480   -14.459     0.021    -14.60
   CO3-2           2.933e-15   8.910e-16   -14.533   -15.050    -0.517     -2.53
   CaHCO3+         2.576e-15   1.940e-15   -14.589   -14.712    -0.123      9.88
   MgCO3           1.935e-15   2.032e-15   -14.713   -14.692     0.021    -17.09
   Cu(CO3)2-2      6.234e-24   1.910e-24   -23.205   -23.719    -0.514     (0)  
   Zn(CO3)2-2      6.302e-25   1.931e-25   -24.201   -24.714    -0.514     (0)  
Ca            1.177e-02
   Ca+2            7.351e-03   2.324e-03    -2.134    -2.634    -0.500    -17.19
   CaSO4           4.394e-03   4.490e-03    -2.357    -2.348     0.009      7.22
   CaHSO4+         2.535e-05   1.886e-05    -4.596    -4.724    -0.128     (0)  
   CaOH+           1.031e-12   7.673e-13   -11.987   -12.115    -0.128     (0)  
   CaCO3           3.312e-15   3.478e-15   -14.480   -14.459     0.021    -14.60
   CaHCO3+         2.576e-15   1.940e-15   -14.589   -14.712    -0.123      9.88
Cl            9.640e-03
   Cl-             8.827e-03   6.276e-03    -2.054    -2.202    -0.148     18.47
   CuCl2-          3.259e-04   2.326e-04    -3.487    -3.633    -0.146     (0)  
   FeCl+           1.130e-04   8.407e-05    -3.947    -4.075    -0.128     (0)  
   MnCl+           1.345e-05   9.884e-06    -4.871    -5.005    -0.134     -2.87
   CuCl+           8.421e-06   6.011e-06    -5.075    -5.221    -0.146      1.16
   CuCl3-2         7.936e-06   2.314e-06    -5.100    -5.636    -0.535     (0)  
   ZnCl+           1.349e-06   9.631e-07    -5.870    -6.016    -0.146    -14.41
   HCl             8.798e-07   1.084e-06    -6.056    -5.965     0.090     20.36
   MnCl2           2.578e-08   2.708e-08    -7.589    -7.567     0.021     85.89
   CuCl2           1.929e-08   2.026e-08    -7.715    -7.693     0.021     31.02
   ZnCl2           6.027e-09   6.329e-09    -8.220    -8.199     0.021    102.03
   MnCl3-          6.370e-11   4.681e-11   -10.196   -10.330    -0.134     44.29
   ZnCl3-          6.244e-11   4.457e-11   -10.205   -10.351    -0.146     15.74
   ZnOHCl          2.245e-11   2.357e-11   -10.649   -10.628     0.021     (0)  
   FeCl+2          6.025e-12   1.757e-12   -11.220   -11.755    -0.535     (0)  
   CuCl3-          6.320e-13   4.511e-13   -12.199   -12.346    -0.146     (0)  
   ZnCl4-2         4.808e-13   1.402e-13   -12.318   -12.853    -0.535    147.47
   FeCl2+          6.701e-14   4.924e-14   -13.174   -13.308    -0.134     (0)  
   CuCl4-2         4.867e-17   1.419e-17   -16.313   -16.848    -0.535     (0)  
   FeCl3           2.943e-17   3.090e-17   -16.531   -16.510     0.021     (0)  
Cu(1)         3.615e-04
   CuCl2-          3.259e-04   2.326e-04    -3.487    -3.633    -0.146     (0)  
   Cu+             2.766e-05   1.868e-05    -4.558    -4.729    -0.171     (0)  
   CuCl3-2         7.936e-06   2.314e-06    -5.100    -5.636    -0.535     (0)  
Cu(2)         2.074e-03
   Cu+2            1.107e-03   3.558e-04    -2.956    -3.449    -0.493    -25.74
   CuSO4           9.585e-04   1.007e-03    -3.018    -2.997     0.021     13.09
   CuCl+           8.421e-06   6.011e-06    -5.075    -5.221    -0.146      1.16
   CuCl2           1.929e-08   2.026e-08    -7.715    -7.693     0.021     31.02
   CuOH+           9.920e-09   7.080e-09    -8.004    -8.150    -0.146     (0)  
   CuHCO3+         2.283e-09   1.698e-09    -8.642    -8.770    -0.128     (0)  
   Cu2(OH)2+2      7.159e-11   2.194e-11   -10.145   -10.659    -0.514     (0)  
   Cu(OH)2         2.803e-11   2.943e-11   -10.552   -10.531     0.021     (0)  
   CuCO3           1.621e-12   1.703e-12   -11.790   -11.769     0.021     (0)  
   CuCl3-          6.320e-13   4.511e-13   -12.199   -12.346    -0.146     (0)  
   CuCl4-2         4.867e-17   1.419e-17   -16.313   -16.848    -0.535     (0)  
   Cu(OH)3-        4.743e-21   3.529e-21   -20.324   -20.452    -0.128     (0)  
   Cu(CO3)2-2      6.234e-24   1.910e-24   -23.205   -23.719    -0.514     (0)  
   Cu(OH)4-2       4.572e-30   1.401e-30   -29.340   -29.854    -0.514     (0)  
Fe(2)         5.317e-02
   Fe+2            3.018e-02   9.704e-03    -1.520    -2.013    -0.493    -21.23
   FeSO4           2.277e-02   2.391e-02    -1.643    -1.621     0.021     30.28
   FeCl+           1.130e-04   8.407e-05    -3.947    -4.075    -0.128     (0)  
   FeHSO4+         1.059e-04   7.877e-05    -3.975    -4.104    -0.128     (0)  
   FeHCO3+         1.242e-08   9.241e-09    -7.906    -8.034    -0.128     (0)  
   FeOH+           8.310e-09   6.106e-09    -8.080    -8.214    -0.134     (0)  
   FeCO3           1.975e-13   2.074e-13   -12.704   -12.683     0.021     (0)  
   Fe(OH)2         9.847e-17   1.034e-16   -16.007   -15.985     0.021     (0)  
   Fe(OH)3-        1.040e-23   7.644e-24   -22.983   -23.117    -0.134     (0)  
Fe(3)         3.089e-09
   FeSO4+          1.916e-09   1.408e-09    -8.718    -8.851    -0.134     (0)  
   Fe(SO4)2-       5.736e-10   4.267e-10    -9.241    -9.370    -0.128     (0)  
   FeOH+2          4.084e-10   1.191e-10    -9.389    -9.924    -0.535     (0)  
   Fe(OH)2+        1.057e-10   7.844e-11    -9.976   -10.105    -0.129     (0)  
   Fe+3            7.288e-11   9.268e-12   -10.137   -11.033    -0.896     (0)  
   FeHSO4+2        6.166e-12   1.889e-12   -11.210   -11.724    -0.514     (0)  
   FeCl+2          6.025e-12   1.757e-12   -11.220   -11.755    -0.535     (0)  
   FeCl2+          6.701e-14   4.924e-14   -13.174   -13.308    -0.134     (0)  
   Fe(OH)3         1.915e-14   2.011e-14   -13.718   -13.697     0.021     (0)  
   Fe2(OH)2+4      4.328e-17   3.815e-19   -16.364   -18.418    -2.055     (0)  
   FeCl3           2.943e-17   3.090e-17   -16.531   -16.510     0.021     (0)  
   Fe(OH)4-        4.914e-20   3.648e-20   -19.309   -19.438    -0.129     (0)  
   Fe3(OH)4+5      1.015e-23   6.253e-27   -22.993   -26.204    -3.211     (0)  
H(0)          3.378e-18
   H2              1.689e-18   1.778e-18   -17.772   -17.750     0.022     14.99
K             2.029e-04
   K+              1.716e-04   1.213e-04    -3.766    -3.916    -0.151      9.35
   KSO4-           3.139e-05   2.557e-05    -4.503    -4.592    -0.089     28.86
   KHCO3           4.913e-13   5.160e-13   -12.309   -12.287     0.021     21.42
Mg            1.603e-02
   MgSO4           7.862e-03   8.670e-03    -2.104    -2.062     0.043     -0.40
   Mg+2            7.064e-03   2.390e-03    -2.151    -2.622    -0.471    -20.90
   Mg(SO4)2-2      1.106e-03   3.957e-04    -2.956    -3.403    -0.447     45.25
   MgHCO3+         3.731e-10   2.663e-10    -9.428    -9.575    -0.146      5.72
   MgOH+           2.268e-11   1.727e-11   -10.644   -10.763    -0.118     (0)  
   MgCO3           1.935e-15   2.032e-15   -14.713   -14.692     0.021    -17.09
Mn(2)         1.360e-03
   Mn+2            1.202e-03   3.866e-04    -2.920    -3.413    -0.493    -17.49
   MnSO4           1.438e-04   1.370e-04    -3.842    -3.863    -0.021     17.15
   MnCl+           1.345e-05   9.884e-06    -4.871    -5.005    -0.134     -2.87
   MnCl2           2.578e-08   2.708e-08    -7.589    -7.567     0.021     85.89
   MnHCO3+         4.465e-10   3.281e-10    -9.350    -9.484    -0.134     (0)  
   MnCl3-          6.370e-11   4.681e-11   -10.196   -10.330    -0.134     44.29
   MnOH+           2.691e-11   1.977e-11   -10.570   -10.704    -0.134     (0)  
   MnCO3           2.606e-14   2.736e-14   -13.584   -13.563     0.021     (0)  
   Mn(OH)3-        6.568e-29   4.826e-29   -28.183   -28.316    -0.134     (0)  
Mn(3)         9.394e-25
   Mn+3            9.394e-25   1.195e-25   -24.027   -24.923    -0.896     (0)  
Na            9.538e-03
   Na+             8.497e-03   6.329e-03    -2.071    -2.199    -0.128     -0.92
   NaSO4-          1.041e-03   7.703e-04    -2.982    -3.113    -0.131     19.27
   Na2SO4          2.276e-09   2.377e-09    -8.643    -8.624     0.019     47.96
   NaHCO3          2.767e-11   2.979e-11   -10.558   -10.526     0.032     17.66
O(0)          0.000e+00
   O2              0.000e+00   0.000e+00   -56.886   -56.865     0.021     30.40
S(6)          1.018e-01
   SO4-2           4.846e-02   1.385e-02    -1.315    -1.858    -0.544     15.59
   FeSO4           2.277e-02   2.391e-02    -1.643    -1.621     0.021     30.28
   MgSO4           7.862e-03   8.670e-03    -2.104    -2.062     0.043     -0.40
   AlSO4+          6.789e-03   4.920e-03    -2.168    -2.308    -0.140     (0)  
   CaSO4           4.394e-03   4.490e-03    -2.357    -2.348     0.009      7.22
   Al(SO4)2-       2.974e-03   2.155e-03    -2.527    -2.666    -0.140     (0)  
   Mg(SO4)2-2      1.106e-03   3.957e-04    -2.956    -3.403    -0.447     45.25
   NaSO4-          1.041e-03   7.703e-04    -2.982    -3.113    -0.131     19.27
   CuSO4           9.585e-04   1.007e-03    -3.018    -2.997     0.021     13.09
   HSO4-           9.074e-04   6.751e-04    -3.042    -3.171    -0.128     40.66
   MnSO4           1.438e-04   1.370e-04    -3.842    -3.863    -0.021     17.15
   ZnSO4           1.369e-04   1.437e-04    -3.864    -3.842     0.021      6.48
   FeHSO4+         1.059e-04   7.877e-05    -3.975    -4.104    -0.128     (0)  
   KSO4-           3.139e-05   2.557e-05    -4.503    -4.592    -0.089     28.86
   CaHSO4+         2.535e-05   1.886e-05    -4.596    -4.724    -0.128     (0)  
   Zn(SO4)2-2      1.075e-06   1.546e-07    -5.969    -6.811    -0.842     45.30
   AlHSO4+2        7.135e-07   2.186e-07    -6.147    -6.660    -0.514     (0)  
   Na2SO4          2.276e-09   2.377e-09    -8.643    -8.624     0.019     47.96
   FeSO4+          1.916e-09   1.408e-09    -8.718    -8.851    -0.134     (0)  
   Fe(SO4)2-       5.736e-10   4.267e-10    -9.241    -9.370    -0.128     (0)  
   FeHSO4+2        6.166e-12   1.889e-12   -11.210   -11.724    -0.514     (0)  
Zn            3.348e-04
   Zn+2            1.955e-04   5.701e-05    -3.709    -4.244    -0.535    -24.47
   ZnSO4           1.369e-04   1.437e-04    -3.864    -3.842     0.021      6.48
   ZnCl+           1.349e-06   9.631e-07    -5.870    -6.016    -0.146    -14.41
   Zn(SO4)2-2      1.075e-06   1.546e-07    -5.969    -6.811    -0.842     45.30
   ZnCl2           6.027e-09   6.329e-09    -8.220    -8.199     0.021    102.03
   ZnOH+           1.672e-10   1.244e-10    -9.777    -9.905    -0.128     (0)  
   ZnHCO3+         9.187e-11   6.835e-11   -10.037   -10.165    -0.128     (0)  
   ZnCl3-          6.244e-11   4.457e-11   -10.205   -10.351    -0.146     15.74
   ZnOHCl          2.245e-11   2.357e-11   -10.649   -10.628     0.021     (0)  
   ZnCl4-2         4.808e-13   1.402e-13   -12.318   -12.853    -0.535    147.47
   ZnCO3           9.652e-15   1.014e-14   -14.015   -13.994     0.021     (0)  
   Zn(OH)2         2.706e-15   2.841e-15   -14.568   -14.546     0.021     (0)  
   Zn(OH)3-        2.403e-23   1.788e-23   -22.619   -22.748    -0.128     (0)  
   Zn(CO3)2-2      6.302e-25   1.931e-25   -24.201   -24.714    -0.514     (0)  
   Zn(OH)4-2       1.840e-32   5.638e-33   -31.735   -32.249    -0.514     (0)  

------------------------------Saturation indices-------------------------------

  Phase               SI** log IAP   log K(298 K,   1 atm)

  Al(OH)3(a)       -4.85      5.95   10.80  Al(OH)3
  AlOHSO4          -0.31     -2.51   -2.20  AlOHSO4
  Alunite           1.71      0.31   -1.40  KAl3(SO4)2(OH)6
  Anhydrite        -0.18     -4.49   -4.31  CaSO4
  Aragonite        -9.35    -17.68   -8.34  CaCO3
  Arcanite         -7.81     -9.69   -1.88  K2SO4
  Calcite          -9.24    -17.68   -8.45  CaCO3
  CO2(g)           -3.50     -4.97   -1.47  CO2	 Pressure   0.0 atm, phi 1.000
  Dolomite        -18.27    -35.36  -17.08  CaMg(CO3)2
  Epsomite         -2.75     -4.49   -1.74  MgSO4:7H2O
  Fe(OH)3          -6.03     -1.14    4.89  Fe(OH)3
  Fe(OH)3(a)       -6.03     -1.14    4.89  Fe(OH)3
  Gibbsite         -2.16      5.95    8.11  Al(OH)3
  Goethite         -0.14     -1.14   -1.00  FeOOH
  Gypsum            0.05     -4.49   -4.55  CaSO4:2H2O
  H2(g)           -14.65    -17.75   -3.10  H2
  H2O(g)           -1.50     -0.00    1.50  H2O
  Halite           -5.97     -4.40    1.57  NaCl
  Hausmannite     -36.87     24.16   61.03  Mn3O4
  Hematite          1.74     -2.27   -4.01  Fe2O3
  Hexahydrite      -2.92     -4.49   -1.57  MgSO4:6H2O
  Jarosite-K      -11.73    -20.94   -9.21  KFe3(SO4)2(OH)6
  Kieserite        -3.32     -4.48   -1.16  MgSO4:H2O
  Manganite       -14.86     10.48   25.34  MnOOH
  Melanterite      -1.67     -3.88   -2.21  FeSO4:7H2O
  Mirabilite       -5.56     -6.27   -0.71  Na2SO4:10H2O
  MnO2            -23.60     17.78   41.38  MnO2
  O2(g)           -53.97    -56.86   -2.89  O2
  Pyrochroite     -12.02      3.18   15.20  Mn(OH)2
  Pyrolusite      -23.60     17.78   41.38  MnO2:H2O
  Rhodochrosite    -7.33    -18.46  -11.13  MnCO3
  Siderite         -6.17    -17.06  -10.89  FeCO3
  Smithsonite      -9.29    -19.29  -10.00  ZnCO3
  Sylvite          -7.02     -6.12    0.90  KCl
  Thenardite       -6.91     -6.26    0.65  Na2SO4
  Zn(OH)2(e)       -9.15      2.35   11.50  Zn(OH)2

**For a gas, SI = log10(fugacity). Fugacity = pressure * phi / 1 atm.
  For ideal gases, phi = 1.

Initial solution 1.	

-----------------------------Solution composition------------------------------

	Elements           Molality       Moles

	Al                1.801e-06   1.801e-06
	Alkalinity        2.301e-03   2.301e-03
	Ca                1.222e-03   1.222e-03  Charge balance
	Cl                4.801e-04   4.801e-04
	Cu                1.500e-07   1.500e-07
	Fe                3.501e-07   3.501e-07
	K                 3.001e-05   3.001e-05
	Mg                3.701e-04   3.701e-04
	Mn                1.000e-07   1.000e-07
	Na                9.603e-04   9.603e-04
	O(0)              2.201e-04   2.201e-04
	S(6)              7.002e-04   7.002e-04
	Zn                2.501e-07   2.501e-07

----------------------------Description of solution----------------------------

                                       pH  =   7.190    
                                       pe  =   4.000    
      Specific Conductance (µS/cm,  25°C)  = 444
                          Density (g/cm³)  =   0.99731
                               Volume (L)  =   1.00302
                        Viscosity (mPa s)  =   0.89193
                        Activity of water  =   1.000
                 Ionic strength (mol/kgw)  =   6.118e-03
                       Mass of water (kg)  =   1.000e+00
                    Total carbon (mol/kg)  =   2.593e-03
                       Total CO2 (mol/kg)  =   2.593e-03
                         Temperature (°C)  =  25.00
                  Electrical balance (eq)  =   1.370e-17
 Percent error, 100*(Cat-|An|)/(Cat+|An|)  =   0.00
                               Iterations  =  11 (20 overall)
                                  Total H  = 1.110147e+02
                                  Total O  = 5.551672e+01

---------------------------------Redox couples---------------------------------

	Redox couple             pe  Eh (volts)

	O(-2)/O(0)          13.3362      0.7889

----------------------------Distribution of species----------------------------

                                               Log       Log       Log    mole V
   Species          Molality    Activity  Molality  Activity     Gamma   cm³/mol

   OH-             1.705e-07   1.567e-07    -6.768    -6.805    -0.037     -4.06
   H+              6.957e-08   6.457e-08    -7.158    -7.190    -0.032      0.00
   H2O             5.551e+01   9.999e-01     1.744    -0.000     0.000     18.07
Al            1.801e-06
   Al(OH)4-        1.720e-06   1.584e-06    -5.764    -5.800    -0.036     (0)  
   Al(OH)3         5.420e-08   5.428e-08    -7.266    -7.265     0.001     (0)  
   Al(OH)2+        2.579e-08   2.379e-08    -7.589    -7.624    -0.035     (0)  
   AlOH+2          2.706e-10   1.960e-10    -9.568    -9.708    -0.140    -27.61
   Al+3            2.493e-12   1.274e-12   -11.603   -11.895    -0.292    -41.99
   AlSO4+          1.943e-12   1.790e-12   -11.711   -11.747    -0.036     (0)  
   Al(SO4)2-       2.730e-14   2.514e-14   -13.564   -13.600    -0.036     (0)  
   AlHSO4+2        1.428e-20   1.025e-20   -19.845   -19.989    -0.144     (0)  
C(4)          2.593e-03
   HCO3-           2.276e-03   2.100e-03    -2.643    -2.678    -0.035     24.65
   CO2             3.046e-04   3.049e-04    -3.516    -3.516     0.000     34.79
   MgHCO3+         6.501e-06   5.982e-06    -5.187    -5.223    -0.036      5.51
   CaCO3           2.162e-06   2.165e-06    -5.665    -5.665     0.001    -14.60
   CO3-2           2.106e-06   1.525e-06    -5.676    -5.817    -0.140     -4.46
   NaHCO3          9.119e-07   9.138e-07    -6.040    -6.039     0.001     17.66
   MgCO3           3.538e-07   3.543e-07    -6.451    -6.451     0.001    -17.09
   CuCO3           7.649e-08   7.660e-08    -7.116    -7.116     0.001     (0)  
   ZnCO3           3.630e-08   3.635e-08    -7.440    -7.439     0.001     (0)  
   ZnHCO3+         3.431e-08   3.158e-08    -7.465    -7.501    -0.036     (0)  
   KHCO3           2.565e-08   2.569e-08    -7.591    -7.590     0.001     21.42
   FeHCO3+         2.461e-08   2.265e-08    -7.609    -7.645    -0.036     (0)  
   MnHCO3+         1.186e-08   1.093e-08    -7.926    -7.961    -0.035     (0)  
   CuHCO3+         1.069e-08   9.842e-09    -7.971    -8.007    -0.036     (0)  
   MnCO3           7.067e-09   7.077e-09    -8.151    -8.150     0.001     (0)  
   FeCO3           3.941e-09   3.947e-09    -8.404    -8.404     0.001     (0)  
   Zn(CO3)2-2      1.653e-09   1.186e-09    -8.782    -8.926    -0.144     (0)  
   (CO2)2          1.510e-09   1.511e-09    -8.821    -8.821     0.000     68.75
   Cu(CO3)2-2      2.051e-10   1.471e-10    -9.688    -9.832    -0.144     (0)  
   CaHCO3+         1.685e-10   1.556e-10    -9.774    -9.808    -0.035      9.71
Ca            1.222e-03
   Ca+2            1.167e-03   8.449e-04    -2.933    -3.073    -0.140    -17.99
   CaSO4           5.232e-05   5.236e-05    -4.281    -4.281     0.000      7.22
   CaCO3           2.162e-06   2.165e-06    -5.665    -5.665     0.001    -14.60
   CaOH+           2.360e-09   2.172e-09    -8.627    -8.663    -0.036     (0)  
   CaHCO3+         1.685e-10   1.556e-10    -9.774    -9.808    -0.035      9.71
   CaHSO4+         3.078e-11   2.833e-11   -10.512   -10.548    -0.036     (0)  
Cl            4.801e-04
   Cl-             4.801e-04   4.415e-04    -3.319    -3.355    -0.036     18.12
   ZnCl+           1.543e-10   1.420e-10    -9.812    -9.848    -0.036    -13.88
   MnCl+           1.140e-10   1.051e-10    -9.943    -9.979    -0.035     -3.05
   FeCl+           7.143e-11   6.574e-11   -10.146   -10.182    -0.036     (0)  
   CuCl2-          3.288e-11   3.026e-11   -10.483   -10.519    -0.036     (0)  
   ZnOHCl          2.701e-11   2.705e-11   -10.569   -10.568     0.001     (0)  
   CuCl+           1.208e-11   1.111e-11   -10.918   -10.954    -0.036      0.68
   HCl             9.762e-12   9.821e-12   -11.010   -11.008     0.003     20.36
   ZnCl2           6.554e-14   6.563e-14   -13.183   -13.183     0.001    102.03
   CuCl3-2         2.932e-14   2.117e-14   -13.533   -13.674    -0.141     (0)  
   MnCl2           2.022e-14   2.025e-14   -13.694   -13.694     0.001     85.89
   CuCl2           2.632e-15   2.635e-15   -14.580   -14.579     0.001     31.02
   ZnCl3-          3.534e-17   3.252e-17   -16.452   -16.488    -0.036     16.98
   MnCl3-          2.671e-18   2.463e-18   -17.573   -17.609    -0.035     43.40
   FeCl+2          1.902e-18   1.374e-18   -17.721   -17.862    -0.141     (0)  
   ZnCl4-2         9.965e-21   7.196e-21   -20.002   -20.143    -0.141    145.36
   CuCl3-          4.487e-21   4.129e-21   -20.348   -20.384    -0.036     (0)  
   FeCl2+          2.939e-21   2.709e-21   -20.532   -20.567    -0.035     (0)  
   FeCl3           1.194e-25   1.196e-25   -24.923   -24.922     0.001     (0)  
   CuCl4-2         1.265e-26   9.136e-27   -25.898   -26.039    -0.141     (0)  
Cu(1)         5.679e-10
   Cu+             5.350e-10   4.908e-10    -9.272    -9.309    -0.037     (0)  
   CuCl2-          3.288e-11   3.026e-11   -10.483   -10.519    -0.036     (0)  
   CuCl3-2         2.932e-14   2.117e-14   -13.533   -13.674    -0.141     (0)  
Cu(2)         1.495e-07
   CuCO3           7.649e-08   7.660e-08    -7.116    -7.116     0.001     (0)  
   Cu(OH)2         4.679e-08   4.686e-08    -7.330    -7.329     0.001     (0)  
   Cu+2            1.286e-08   9.351e-09    -7.891    -8.029    -0.138    -26.46
   CuHCO3+         1.069e-08   9.842e-09    -7.971    -8.007    -0.036     (0)  
   CuOH+           1.574e-09   1.448e-09    -8.803    -8.839    -0.036     (0)  
   CuSO4           8.470e-10   8.482e-10    -9.072    -9.072     0.001     13.09
   Cu(CO3)2-2      2.051e-10   1.471e-10    -9.688    -9.832    -0.144     (0)  
   CuCl+           1.208e-11   1.111e-11   -10.918   -10.954    -0.036      0.68
   Cu2(OH)2+2      1.279e-12   9.177e-13   -11.893   -12.037    -0.144     (0)  
   Cu(OH)3-        4.751e-14   4.372e-14   -13.323   -13.359    -0.036     (0)  
   CuCl2           2.632e-15   2.635e-15   -14.580   -14.579     0.001     31.02
   Cu(OH)4-2       1.883e-19   1.351e-19   -18.725   -18.869    -0.144     (0)  
   CuCl3-          4.487e-21   4.129e-21   -20.348   -20.384    -0.036     (0)  
   CuCl4-2         1.265e-26   9.136e-27   -25.898   -26.039    -0.141     (0)  
Fe(2)         1.860e-07
   Fe+2            1.483e-07   1.079e-07    -6.829    -6.967    -0.138    -21.99
   FeHCO3+         2.461e-08   2.265e-08    -7.609    -7.645    -0.036     (0)  
   FeSO4           8.509e-09   8.521e-09    -8.070    -8.070     0.001     30.28
   FeCO3           3.941e-09   3.947e-09    -8.404    -8.404     0.001     (0)  
   FeOH+           5.730e-10   5.282e-10    -9.242    -9.277    -0.035     (0)  
   FeCl+           7.143e-11   6.574e-11   -10.146   -10.182    -0.036     (0)  
   Fe(OH)2         6.953e-14   6.962e-14   -13.158   -13.157     0.001     (0)  
   FeHSO4+         3.929e-15   3.616e-15   -14.406   -14.442    -0.036     (0)  
   Fe(OH)3-        4.346e-17   4.006e-17   -16.362   -16.397    -0.035     (0)  
Fe(3)         1.641e-07
   Fe(OH)3         1.052e-07   1.054e-07    -6.978    -6.977     0.001     (0)  
   Fe(OH)2+        5.725e-08   5.282e-08    -7.242    -7.277    -0.035     (0)  
   Fe(OH)4-        1.613e-09   1.488e-09    -8.792    -8.827    -0.035     (0)  
   FeOH+2          1.426e-11   1.030e-11   -10.846   -10.987    -0.141     (0)  
   FeSO4+          5.443e-16   5.017e-16   -15.264   -15.300    -0.035     (0)  
   Fe+3            2.016e-16   1.030e-16   -15.696   -15.987    -0.292     (0)  
   Fe(SO4)2-       5.299e-18   4.877e-18   -17.276   -17.312    -0.036     (0)  
   FeCl+2          1.902e-18   1.374e-18   -17.721   -17.862    -0.141     (0)  
   Fe2(OH)2+4      1.078e-20   2.855e-21   -19.967   -20.544    -0.577     (0)  
   FeCl2+          2.939e-21   2.709e-21   -20.532   -20.567    -0.035     (0)  
   FeHSO4+2        1.209e-22   8.675e-23   -21.917   -22.062    -0.144     (0)  
   Fe3(OH)4+5      2.512e-25   3.151e-26   -24.600   -25.502    -0.902     (0)  
   FeCl3           1.194e-25   1.196e-25   -24.923   -24.922     0.001     (0)  
H(0)          5.894e-26
   H2              2.947e-26   2.951e-26   -25.531   -25.530     0.001     14.99
K             3.001e-05
   K+              2.978e-05   2.738e-05    -4.526    -4.563    -0.037      9.05
   KSO4-           2.001e-07   1.851e-07    -6.699    -6.733    -0.034     20.00
   KHCO3           2.565e-08   2.569e-08    -7.591    -7.590     0.001     21.42
Mg            3.701e-04
   Mg+2            3.349e-04   2.434e-04    -3.475    -3.614    -0.139    -21.68
   MgSO4           2.824e-05   2.832e-05    -4.549    -4.548     0.001     -0.40
   MgHCO3+         6.501e-06   5.982e-06    -5.187    -5.223    -0.036      5.51
   MgCO3           3.538e-07   3.543e-07    -6.451    -6.451     0.001    -17.09
   Mg(SO4)2-2      5.653e-08   4.143e-08    -7.248    -7.383    -0.135     36.97
   MgOH+           1.481e-08   1.369e-08    -7.829    -7.864    -0.034     (0)  
Mn(2)         1.000e-07
   Mn+2            8.030e-08   5.841e-08    -7.095    -7.234    -0.138    -20.14
   MnHCO3+         1.186e-08   1.093e-08    -7.926    -7.961    -0.035     (0)  
   MnCO3           7.067e-09   7.077e-09    -8.151    -8.150     0.001     (0)  
   MnSO4           6.648e-10   6.639e-10    -9.177    -9.178    -0.001     17.15
   MnCl+           1.140e-10   1.051e-10    -9.943    -9.979    -0.035     -3.05
   MnOH+           2.522e-11   2.325e-11   -10.598   -10.634    -0.035     (0)  
   MnCl2           2.022e-14   2.025e-14   -13.694   -13.694     0.001     85.89
   MnCl3-          2.671e-18   2.463e-18   -17.573   -17.609    -0.035     43.40
   Mn(OH)3-        3.730e-21   3.438e-21   -20.428   -20.464    -0.035     (0)  
Mn(3)         3.532e-29
   Mn+3            3.532e-29   1.805e-29   -28.452   -28.744    -0.292     (0)  
Na            9.603e-04
   Na+             9.556e-04   8.804e-04    -3.020    -3.055    -0.036     -1.41
   NaSO4-          3.732e-06   3.436e-06    -5.428    -5.464    -0.036     16.86
   NaHCO3          9.119e-07   9.138e-07    -6.040    -6.039     0.001     17.66
   Na2SO4          1.473e-12   1.475e-12   -11.832   -11.831     0.001     47.96
O(0)          2.201e-04
   O2              1.100e-04   1.102e-04    -3.958    -3.958     0.001     30.40
S(6)          7.002e-04
   SO4-2           6.156e-04   4.442e-04    -3.211    -3.352    -0.142     14.64
   CaSO4           5.232e-05   5.236e-05    -4.281    -4.281     0.000      7.22
   MgSO4           2.824e-05   2.832e-05    -4.549    -4.548     0.001     -0.40
   NaSO4-          3.732e-06   3.436e-06    -5.428    -5.464    -0.036     16.86
   KSO4-           2.001e-07   1.851e-07    -6.699    -6.733    -0.034     20.00
   Mg(SO4)2-2      5.653e-08   4.143e-08    -7.248    -7.383    -0.135     36.97
   ZnSO4           9.642e-09   9.656e-09    -8.016    -8.015     0.001      6.48
   FeSO4           8.509e-09   8.521e-09    -8.070    -8.070     0.001     30.28
   HSO4-           3.030e-09   2.789e-09    -8.519    -8.555    -0.036     40.32
   CuSO4           8.470e-10   8.482e-10    -9.072    -9.072     0.001     13.09
   MnSO4           6.648e-10   6.639e-10    -9.177    -9.178    -0.001     17.15
   CaHSO4+         3.078e-11   2.833e-11   -10.512   -10.548    -0.036     (0)  
   AlSO4+          1.943e-12   1.790e-12   -11.711   -11.747    -0.036     (0)  
   Na2SO4          1.473e-12   1.475e-12   -11.832   -11.831     0.001     47.96
   Zn(SO4)2-2      4.775e-13   3.330e-13   -12.321   -12.478    -0.157     44.57
   Al(SO4)2-       2.730e-14   2.514e-14   -13.564   -13.600    -0.036     (0)  
   FeHSO4+         3.929e-15   3.616e-15   -14.406   -14.442    -0.036     (0)  
   FeSO4+          5.443e-16   5.017e-16   -15.264   -15.300    -0.035     (0)  
   Fe(SO4)2-       5.299e-18   4.877e-18   -17.276   -17.312    -0.036     (0)  
   AlHSO4+2        1.428e-20   1.025e-20   -19.845   -19.989    -0.144     (0)  
   FeHSO4+2        1.209e-22   8.675e-23   -21.917   -22.062    -0.144     (0)  
Zn            2.501e-07
   Zn+2            1.654e-07   1.194e-07    -6.781    -6.923    -0.141    -25.21
   ZnCO3           3.630e-08   3.635e-08    -7.440    -7.439     0.001     (0)  
   ZnHCO3+         3.431e-08   3.158e-08    -7.465    -7.501    -0.036     (0)  
   ZnSO4           9.642e-09   9.656e-09    -8.016    -8.015     0.001      6.48
   ZnOH+           2.204e-09   2.028e-09    -8.657    -8.693    -0.036     (0)  
   Zn(CO3)2-2      1.653e-09   1.186e-09    -8.782    -8.926    -0.144     (0)  
   Zn(OH)2         3.601e-10   3.606e-10    -9.444    -9.443     0.001     (0)  
   ZnCl+           1.543e-10   1.420e-10    -9.812    -9.848    -0.036    -13.88
   ZnOHCl          2.701e-11   2.705e-11   -10.569   -10.568     0.001     (0)  
   Zn(SO4)2-2      4.775e-13   3.330e-13   -12.321   -12.478    -0.157     44.57
   ZnCl2           6.554e-14   6.563e-14   -13.183   -13.183     0.001    102.03
   Zn(OH)3-        1.919e-14   1.766e-14   -13.717   -13.753    -0.036     (0)  
   ZnCl3-          3.534e-17   3.252e-17   -16.452   -16.488    -0.036     16.98
   Zn(OH)4-2       6.043e-20   4.335e-20   -19.219   -19.363    -0.144     (0)  
   ZnCl4-2         9.965e-21   7.196e-21   -20.002   -20.143    -0.141    145.36

------------------------------Saturation indices-------------------------------

  Phase               SI** log IAP   log K(298 K,   1 atm)

  Al(OH)3(a)       -1.12      9.68   10.80  Al(OH)3
  AlOHSO4          -5.86     -8.06   -2.20  AlOHSO4
  Alunite          -2.41     -3.81   -1.40  KAl3(SO4)2(OH)6
  Anhydrite        -2.11     -6.43   -4.31  CaSO4
  Aragonite        -0.55     -8.89   -8.34  CaCO3
  Arcanite        -10.60    -12.48   -1.88  K2SO4
  Calcite          -0.44     -8.89   -8.45  CaCO3
  CO2(g)           -2.05     -3.52   -1.47  CO2
  Dolomite         -1.24    -18.32  -17.08  CaMg(CO3)2
  Epsomite         -5.23     -6.97   -1.74  MgSO4:7H2O
  Fe(OH)3           0.69      5.58    4.89  Fe(OH)3
  Fe(OH)3(a)        0.69      5.58    4.89  Fe(OH)3
  Gibbsite          1.57      9.68    8.11  Al(OH)3
  Goethite          6.58      5.58   -1.00  FeOOH
  Gypsum           -1.88     -6.43   -4.55  CaSO4:2H2O
  H2(g)           -22.43    -25.53   -3.10  H2
  H2O(g)           -1.50     -0.00    1.50  H2O
  Halite           -7.98     -6.41    1.57  NaCl
  Hausmannite     -17.21     43.82   61.03  Mn3O4
  Hematite         15.17     11.17   -4.01  Fe2O3
  Hexahydrite      -5.40     -6.97   -1.57  MgSO4:6H2O
  Jarosite-K       -6.88    -16.09   -9.21  KFe3(SO4)2(OH)6
  Kieserite        -5.80     -6.97   -1.16  MgSO4:H2O
  Manganite        -7.00     18.34   25.34  MnOOH
  Melanterite      -8.11    -10.32   -2.21  FeSO4:7H2O
  Mirabilite       -8.76     -9.46   -0.71  Na2SO4:10H2O
  MnO2            -11.85     29.53   41.38  MnO2
  O2(g)            -1.07     -3.96   -2.89  O2
  Pyrochroite      -8.05      7.15   15.20  Mn(OH)2
  Pyrolusite      -11.85     29.53   41.38  MnO2:H2O
  Rhodochrosite    -1.92    -13.05  -11.13  MnCO3
  Siderite         -1.89    -12.78  -10.89  FeCO3
  Smithsonite      -2.74    -12.74  -10.00  ZnCO3
  Sylvite          -8.82     -7.92    0.90  KCl
  Thenardite      -10.11     -9.46    0.65  Na2SO4
  Zn(OH)2(e)       -4.04      7.46   11.50  Zn(OH)2

**For a gas, SI = log10(fugacity). Fugacity = pressure * phi / 1 atm.
  For ideal gases, phi = 1.

------------------------------------
Beginning of advection calculations.
------------------------------------

Beginning of advection time step 1, cumulative pore volumes 0.200000.
WARNING: Maximum iterations exceeded, 100

WARNING: Numerical method failed with this set of convergence parameters.

WARNING: Trying smaller step size, pe step size 10, 5 ... 

WARNING: Maximum iterations exceeded, 100

WARNING: Numerical method failed with this set of convergence parameters.

WARNING: Trying smaller step size, pe step size 10, 5 ... 

WARNING: Maximum iterations exceeded, 200

WARNING: Numerical method failed with this set of convergence parameters.

WARNING: Trying reduced tolerance 1e-16 ...

WARNING: Maximum iterations exceeded, 100

WARNING: Numerical method failed with this set of convergence parameters.

WARNING: Trying smaller step size, pe step size 10, 5 ... 

WARNING: Maximum iterations exceeded, 200

WARNING: Numerical method failed with this set of convergence parameters.

WARNING: Trying reduced tolerance 1e-16 ...

WARNING: Maximum iterations exceeded, 100

WARNING: Numerical method failed with this set of convergence parameters.

WARNING: Trying smaller step size, pe step size 10, 5 ... 

WARNING: Maximum iterations exceeded, 200

WARNING: Numerical method failed with this set of convergence parameters.

WARNING: Trying reduced tolerance 1e-16 ...

WARNING: Maximum iterations exceeded, 100

WARNING: Numerical method failed with this set of convergence parameters.

WARNING: Trying smaller step size, pe step size 10, 5 ... 

WARNING: Maximum iterations exceeded, 200

WARNING: Numerical method failed with this set of convergence parameters.

WARNING: Trying reduced tolerance 1e-16 ...

Beginning of advection time step 2, cumulative pore volumes 0.400000.
Beginning of advection time step 3, cumulative pore volumes 0.600000.
Beginning of advection time step 4, cumulative pore volumes 0.800000.
Beginning of advection time step 5, cumulative pore volumes 1.000000.

Cell 1.

Using solution 1.	
Using surface 1.	
Using pure phase assemblage 1.	Pure-phase assemblage after simulation 1.

-------------------------------Phase assemblage--------------------------------

                                                      Moles in assemblage
Phase               SI  log IAP  log K(T, P)   Initial       Final       Delta

Al(OH)3(a)        0.00    10.80     10.80    4.257e-02   5.317e-02   1.059e-02
AlOHSO4          -0.31    -2.51     -2.20    0.000e+00           0   0.000e+00
Calcite          -3.15   -11.60     -8.45    0.000e+00           0   0.000e+00
Fe(OH)3           0.00     4.89      4.89    8.190e-01   8.187e-01  -3.235e-04
Gypsum            0.00    -4.55     -4.55    1.371e-01   1.387e-01   1.616e-03
MnO2            -15.47    25.91     41.38    0.000e+00           0   0.000e+00

------------------------------Surface composition------------------------------

Diffuse Double Layer Surface-Complexation Model

Surf          
	  1.301e-17  Surface + diffuse layer charge, eq
	  1.047e-01  Surface charge, eq
	  2.589e-01  sigma, C/m²
	  7.588e-02  psi, V
	 -2.953e+00  -F*psi/RT
	  5.216e-02  exp(-F*psi/RT)
	  6.000e+02  specific area, m²/g
	  3.900e+04  m² for   6.500e+01 g

	Water in diffuse layer: 3.900e-02 kg, 100.0% of total DDL-water.
		      viscosity: 0.00000 mPa s for DDL water.

	Total moles in diffuse layer (excluding water)

	Element       	     Moles
	Al            	  2.0853e-06
	C             	  1.9123e-05
	Ca            	  9.5334e-05
	Cl            	  1.4771e-03
	Cu            	  8.3088e-06
	Fe            	  6.4337e-04
	H             	  1.2644e-05
	K             	  6.1856e-06
	Mg            	  1.3783e-03
	Mn            	 -4.0819e-05
	Na            	  2.2459e-04
	O             	  2.1521e-01
	S             	  5.3791e-02
	Zn            	  6.2935e-06

Surf          
	  1.500e-01  moles
	                                   Mole                     Log
	Species               Moles    Fraction    Molality    Molality

	SurfOH2+          8.229e-02       0.549   8.234e-02      -1.084
	SurfOH            4.425e-02       0.295   4.428e-02      -1.354
	SurfOCu+          1.166e-02       0.078   1.167e-02      -1.933
	SurfOMn+          1.032e-02       0.069   1.033e-02      -1.986
	SurfOZn+          9.248e-04       0.006   9.254e-04      -3.034
	SurfO-            5.451e-04       0.004   5.454e-04      -3.263

-----------------------------Solution composition------------------------------

	Elements           Molality       Moles

	Al                6.016e-05   6.012e-05
	C                 3.578e-04   3.576e-04
	Ca                1.015e-02   1.014e-02
	Cl                9.647e-03   9.641e-03
	Cu                6.321e-05   6.318e-05
	Fe                5.345e-02   5.342e-02
	K                 2.026e-04   2.025e-04
	Mg                1.583e-02   1.582e-02
	Mn                1.168e-02   1.167e-02
	Na                9.526e-03   9.520e-03
	S                 9.161e-02   9.156e-02
	Zn                4.333e-04   4.330e-04

----------------------------Description of solution----------------------------

                                       pH  =   5.738      Charge balance
                                       pe  =   2.723      Adjusted to redox equilibrium
      Specific Conductance (µS/cm,  25°C)  = 11551
                          Density (g/cm³)  =   1.01010
                               Volume (L)  =   1.00309
                        Viscosity (mPa s)  =   0.91349
                        Activity of water  =   0.997
                 Ionic strength (mol/kgw)  =   2.226e-01
                       Mass of water (kg)  =   9.994e-01
                 Total alkalinity (eq/kg)  =   1.907e-04
                       Total CO2 (mol/kg)  =   3.578e-04
                         Temperature (°C)  =  25.00
                  Electrical balance (eq)  =   2.055e-14
 Percent error, 100*(Cat-|An|)/(Cat+|An|)  =   0.00
                               Iterations  =   1 (17 overall)
                                  Total H  = 1.109447e+02
                                  Total O  = 5.583939e+01

----------------------------Distribution of species----------------------------

                                               Log       Log       Log    mole V
   Species          Molality    Activity  Molality  Activity     Gamma   cm³/mol

   H+              2.305e-06   1.829e-06    -5.637    -5.738    -0.100      0.00
   OH-             7.905e-09   5.520e-09    -8.102    -8.258    -0.156     -3.45
   H2O             5.551e+01   9.972e-01     1.744    -0.001     0.000     18.07
Al            6.016e-05
   AlSO4+          2.474e-05   1.785e-05    -4.607    -4.748    -0.142     (0)  
   Al(OH)2+        1.218e-05   9.007e-06    -4.914    -5.045    -0.131     (0)  
   Al(SO4)2-       1.136e-05   8.193e-06    -4.945    -5.087    -0.142     (0)  
   AlOH+2          7.042e-06   2.107e-06    -5.152    -5.676    -0.524    -26.90
   Al+3            3.121e-06   3.890e-07    -5.506    -6.410    -0.904    -40.78
   Al(OH)4-        1.031e-06   7.439e-07    -5.987    -6.128    -0.142     (0)  
   Al(OH)3         6.876e-07   7.238e-07    -6.163    -6.140     0.022     (0)  
   AlHSO4+2        9.535e-12   2.895e-12   -11.021   -11.538    -0.518     (0)  
C(-4)         0.000e+00
   CH4             0.000e+00   0.000e+00   -46.998   -46.976     0.022     35.46
C(4)          3.578e-04
   CO2             2.015e-04   2.085e-04    -3.696    -3.681     0.015     34.79
   HCO3-           6.809e-05   5.056e-05    -4.167    -4.296    -0.129     26.06
   FeHCO3+         6.474e-05   4.806e-05    -4.189    -4.318    -0.129     (0)  
   MnHCO3+         2.005e-05   1.467e-05    -4.698    -4.833    -0.136     (0)  
   MgHCO3+         1.902e-06   1.351e-06    -5.721    -5.869    -0.149      5.72
   ZnHCO3+         6.141e-07   4.558e-07    -6.212    -6.341    -0.129     (0)  
   MnCO3           3.186e-07   3.354e-07    -6.497    -6.474     0.022     (0)  
   FeCO3           2.809e-07   2.956e-07    -6.551    -6.529     0.022     (0)  
   NaHCO3          1.450e-07   1.567e-07    -6.839    -6.805     0.034     17.66
   CuHCO3+         7.925e-08   5.882e-08    -7.101    -7.230    -0.129     (0)  
   ZnCO3           1.760e-08   1.853e-08    -7.754    -7.732     0.022     (0)  
   CuCO3           1.536e-08   1.617e-08    -7.814    -7.791     0.022     (0)  
   CO3-2           4.334e-09   1.297e-09    -8.363    -8.887    -0.524     -2.48
   CaCO3           4.054e-09   4.267e-09    -8.392    -8.370     0.022    -14.60
   MgCO3           2.685e-09   2.826e-09    -8.571    -8.549     0.022    -17.09
   KHCO3           2.570e-09   2.705e-09    -8.590    -8.568     0.022     21.42
   (CO2)2          6.830e-10   7.065e-10    -9.166    -9.151     0.015     68.75
   CaHCO3+         1.157e-11   8.683e-12   -10.937   -11.061    -0.125      9.88
   Zn(CO3)2-2      1.692e-12   5.136e-13   -11.772   -12.289    -0.518     (0)  
   Cu(CO3)2-2      8.693e-14   2.639e-14   -13.061   -13.579    -0.518     (0)  
Ca            1.015e-02
   Ca+2            6.274e-03   1.959e-03    -2.202    -2.708    -0.506    -17.17
   CaSO4           3.875e-03   3.965e-03    -2.412    -2.402     0.010      7.22
   CaHSO4+         8.185e-08   6.076e-08    -7.087    -7.216    -0.129     (0)  
   CaCO3           4.054e-09   4.267e-09    -8.392    -8.370     0.022    -14.60
   CaOH+           2.388e-10   1.773e-10    -9.622    -9.751    -0.129     (0)  
   CaHCO3+         1.157e-11   8.683e-12   -10.937   -11.061    -0.125      9.88
Cl            9.647e-03
   Cl-             9.316e-03   6.592e-03    -2.031    -2.181    -0.150     18.48
   MnCl+           1.195e-04   8.744e-05    -3.923    -4.058    -0.136     -2.87
   FeCl+           1.165e-04   8.648e-05    -3.934    -4.063    -0.129     (0)  
   CuCl2-          4.459e-05   3.167e-05    -4.351    -4.499    -0.149     (0)  
   ZnCl+           1.788e-06   1.270e-06    -5.748    -5.896    -0.149    -14.44
   CuCl3-2         1.153e-06   3.309e-07    -5.938    -6.480    -0.542     (0)  
   MnCl2           2.390e-07   2.516e-07    -6.622    -6.599     0.022     85.89
   CuCl+           5.798e-08   4.118e-08    -7.237    -7.385    -0.149      1.18
   ZnCl2           8.331e-09   8.769e-09    -8.079    -8.057     0.022    102.03
   ZnOHCl          8.098e-09   8.523e-09    -8.092    -8.069     0.022     (0)  
   HCl             3.339e-09   4.152e-09    -8.476    -8.382     0.095     20.36
   MnCl3-          6.242e-10   4.568e-10    -9.205    -9.340    -0.136     44.32
   CuCl2           1.385e-10   1.458e-10    -9.859    -9.836     0.022     31.02
   ZnCl3-          9.131e-11   6.486e-11   -10.039   -10.188    -0.149     15.67
   ZnCl4-2         7.469e-13   2.143e-13   -12.127   -12.669    -0.542    147.54
   FeCl+2          3.329e-13   9.550e-14   -12.478   -13.020    -0.542     (0)  
   CuCl3-          4.801e-15   3.410e-15   -14.319   -14.467    -0.149     (0)  
   FeCl2+          3.842e-15   2.812e-15   -14.415   -14.551    -0.136     (0)  
   FeCl3           1.761e-18   1.854e-18   -17.754   -17.732     0.022     (0)  
   CuCl4-2         3.927e-19   1.127e-19   -18.406   -18.948    -0.542     (0)  
Cu(1)         4.918e-05
   CuCl2-          4.459e-05   3.167e-05    -4.351    -4.499    -0.149     (0)  
   Cu+             3.436e-06   2.305e-06    -5.464    -5.637    -0.173     (0)  
   CuCl3-2         1.153e-06   3.309e-07    -5.938    -6.480    -0.542     (0)  
Cu(2)         1.404e-05
   Cu+2            7.319e-06   2.321e-06    -5.136    -5.634    -0.499    -25.72
   CuSO4           6.534e-06   6.878e-06    -5.185    -5.163     0.022     13.09
   CuHCO3+         7.925e-08   5.882e-08    -7.101    -7.230    -0.129     (0)  
   CuCl+           5.798e-08   4.118e-08    -7.237    -7.385    -0.149      1.18
   CuOH+           1.782e-08   1.266e-08    -7.749    -7.898    -0.149     (0)  
   CuCO3           1.536e-08   1.617e-08    -7.814    -7.791     0.022     (0)  
   Cu(OH)2         1.370e-08   1.442e-08    -7.863    -7.841     0.022     (0)  
   Cu2(OH)2+2      2.310e-10   7.012e-11    -9.636   -10.154    -0.518     (0)  
   CuCl2           1.385e-10   1.458e-10    -9.859    -9.836     0.022     31.02
   Cu(CO3)2-2      8.693e-14   2.639e-14   -13.061   -13.579    -0.518     (0)  
   CuCl3-          4.801e-15   3.410e-15   -14.319   -14.467    -0.149     (0)  
   Cu(OH)3-        6.385e-16   4.740e-16   -15.195   -15.324    -0.129     (0)  
   CuCl4-2         3.927e-19   1.127e-19   -18.406   -18.948    -0.542     (0)  
   Cu(OH)4-2       1.699e-22   5.157e-23   -21.770   -22.288    -0.518     (0)  
   Cu(HS)3-        0.000e+00   0.000e+00  -104.432  -104.561    -0.129     (0)  
Fe(2)         5.345e-02
   Fe+2            2.997e-02   9.504e-03    -1.523    -2.022    -0.499    -21.21
   FeSO4           2.330e-02   2.453e-02    -1.633    -1.610     0.022     30.28
   FeCl+           1.165e-04   8.648e-05    -3.934    -4.063    -0.129     (0)  
   FeHCO3+         6.474e-05   4.806e-05    -4.189    -4.318    -0.129     (0)  
   FeOH+           2.239e-06   1.639e-06    -5.650    -5.785    -0.136     (0)  
   FeHSO4+         3.972e-07   2.948e-07    -6.401    -6.530    -0.129     (0)  
   FeCO3           2.809e-07   2.956e-07    -6.551    -6.529     0.022     (0)  
   Fe(OH)2         7.228e-12   7.608e-12   -11.141   -11.119     0.022     (0)  
   Fe(OH)3-        2.106e-16   1.541e-16   -15.677   -15.812    -0.136     (0)  
   Fe(HS)2         0.000e+00   0.000e+00   -76.312   -76.290     0.022     (0)  
   Fe(HS)3-        0.000e+00   0.000e+00  -115.732  -115.862    -0.129     (0)  
Fe(3)         4.388e-07
   Fe(OH)2+        4.124e-07   3.050e-07    -6.385    -6.516    -0.131     (0)  
   Fe(OH)3         2.036e-08   2.143e-08    -7.691    -7.669     0.022     (0)  
   FeOH+2          5.887e-09   1.689e-09    -8.230    -8.772    -0.542     (0)  
   FeSO4+          1.043e-10   7.633e-11    -9.982   -10.117    -0.136     (0)  
   Fe(SO4)2-       3.265e-11   2.423e-11   -10.486   -10.616    -0.129     (0)  
   Fe(OH)4-        1.441e-11   1.066e-11   -10.841   -10.972    -0.131     (0)  
   Fe+3            3.848e-12   4.797e-13   -11.415   -12.319    -0.904     (0)  
   FeCl+2          3.329e-13   9.550e-14   -12.478   -13.020    -0.542     (0)  
   Fe2(OH)2+4      9.041e-15   7.679e-17   -14.044   -16.115    -2.071     (0)  
   FeCl2+          3.842e-15   2.812e-15   -14.415   -14.551    -0.136     (0)  
   FeHSO4+2        1.231e-15   3.738e-16   -14.910   -15.427    -0.518     (0)  
   Fe3(OH)4+5      8.423e-18   4.894e-21   -17.075   -20.310    -3.236     (0)  
   FeCl3           1.761e-18   1.854e-18   -17.754   -17.732     0.022     (0)  
H(0)          1.606e-20
   H2              8.030e-21   8.474e-21   -20.095   -20.072     0.023     14.99
K             2.026e-04
   K+              1.702e-04   1.198e-04    -3.769    -3.922    -0.153      9.36
   KSO4-           3.244e-05   2.644e-05    -4.489    -4.578    -0.089     29.06
   KHCO3           2.570e-09   2.705e-09    -8.590    -8.568     0.022     21.42
Mg            1.583e-02
   MgSO4           7.833e-03   8.678e-03    -2.106    -2.062     0.045     -0.40
   Mg+2            6.820e-03   2.284e-03    -2.166    -2.641    -0.475    -20.88
   Mg(SO4)2-2      1.172e-03   4.148e-04    -2.931    -3.382    -0.451     45.38
   MgHCO3+         1.902e-06   1.351e-06    -5.721    -5.869    -0.149      5.72
   MgOH+           5.960e-09   4.522e-09    -8.225    -8.345    -0.120     (0)  
   MgCO3           2.685e-09   2.826e-09    -8.571    -8.549     0.022    -17.09
Mn(2)         1.168e-02
   Mn+2            1.027e-02   3.256e-03    -1.989    -2.487    -0.499    -17.44
   MnSO4           1.271e-03   1.209e-03    -2.896    -2.918    -0.022     17.15
   MnCl+           1.195e-04   8.744e-05    -3.923    -4.058    -0.136     -2.87
   MnHCO3+         2.005e-05   1.467e-05    -4.698    -4.833    -0.136     (0)  
   MnCO3           3.186e-07   3.354e-07    -6.497    -6.474     0.022     (0)  
   MnCl2           2.390e-07   2.516e-07    -6.622    -6.599     0.022     85.89
   MnOH+           6.236e-08   4.564e-08    -7.205    -7.341    -0.136     (0)  
   MnCl3-          6.242e-10   4.568e-10    -9.205    -9.340    -0.136     44.32
   Mn(OH)3-        1.144e-20   8.370e-21   -19.942   -20.077    -0.136     (0)  
Mn(3)         4.266e-25
   Mn+3            4.266e-25   5.318e-26   -24.370   -25.274    -0.904     (0)  
Na            9.526e-03
   Na+             8.442e-03   6.270e-03    -2.074    -2.203    -0.129     -0.90
   NaSO4-          1.084e-03   7.994e-04    -2.965    -3.097    -0.132     19.34
   NaHCO3          1.450e-07   1.567e-07    -6.839    -6.805     0.034     17.66
   Na2SO4          2.336e-09   2.444e-09    -8.632    -8.612     0.020     47.96
O(0)          0.000e+00
   O2              0.000e+00   0.000e+00   -52.243   -52.221     0.022     30.40
S(-2)         0.000e+00
   H2S             0.000e+00   0.000e+00   -40.427   -40.405     0.022     36.27
   HS-             0.000e+00   0.000e+00   -41.453   -41.609    -0.156     21.02
   S-2             0.000e+00   0.000e+00   -48.247   -48.789    -0.542     (0)  
   Zn(HS)2         0.000e+00   0.000e+00   -72.445   -72.423     0.022     (0)  
   Fe(HS)2         0.000e+00   0.000e+00   -76.312   -76.290     0.022     (0)  
   (H2S)2          0.000e+00   0.000e+00   -82.111   -82.088     0.022     30.09
   Cu(HS)3-        0.000e+00   0.000e+00  -104.432  -104.561    -0.129     (0)  
   Zn(HS)3-        0.000e+00   0.000e+00  -112.742  -112.872    -0.129     (0)  
   Fe(HS)3-        0.000e+00   0.000e+00  -115.732  -115.862    -0.129     (0)  
S(6)          9.161e-02
   SO4-2           5.163e-02   1.451e-02    -1.287    -1.838    -0.551     15.62
   FeSO4           2.330e-02   2.453e-02    -1.633    -1.610     0.022     30.28
   MgSO4           7.833e-03   8.678e-03    -2.106    -2.062     0.045     -0.40
   CaSO4           3.875e-03   3.965e-03    -2.412    -2.402     0.010      7.22
   MnSO4           1.271e-03   1.209e-03    -2.896    -2.918    -0.022     17.15
   Mg(SO4)2-2      1.172e-03   4.148e-04    -2.931    -3.382    -0.451     45.38
   NaSO4-          1.084e-03   7.994e-04    -2.965    -3.097    -0.132     19.34
   ZnSO4           1.796e-04   1.891e-04    -3.746    -3.723     0.022      6.48
   KSO4-           3.244e-05   2.644e-05    -4.489    -4.578    -0.089     29.06
   AlSO4+          2.474e-05   1.785e-05    -4.607    -4.748    -0.142     (0)  
   Al(SO4)2-       1.136e-05   8.193e-06    -4.945    -5.087    -0.142     (0)  
   CuSO4           6.534e-06   6.878e-06    -5.185    -5.163     0.022     13.09
   HSO4-           3.476e-06   2.580e-06    -5.459    -5.588    -0.129     40.67
   Zn(SO4)2-2      1.542e-06   2.130e-07    -5.812    -6.672    -0.860     45.31
   FeHSO4+         3.972e-07   2.948e-07    -6.401    -6.530    -0.129     (0)  
   CaHSO4+         8.185e-08   6.076e-08    -7.087    -7.216    -0.129     (0)  
   Na2SO4          2.336e-09   2.444e-09    -8.632    -8.612     0.020     47.96
   FeSO4+          1.043e-10   7.633e-11    -9.982   -10.117    -0.136     (0)  
   Fe(SO4)2-       3.265e-11   2.423e-11   -10.486   -10.616    -0.129     (0)  
   AlHSO4+2        9.535e-12   2.895e-12   -11.021   -11.538    -0.518     (0)  
   FeHSO4+2        1.231e-15   3.738e-16   -14.910   -15.427    -0.518     (0)  
Zn            4.333e-04
   Zn+2            2.496e-04   7.160e-05    -3.603    -4.145    -0.542    -24.45
   ZnSO4           1.796e-04   1.891e-04    -3.746    -3.723     0.022      6.48
   ZnCl+           1.788e-06   1.270e-06    -5.748    -5.896    -0.149    -14.44
   Zn(SO4)2-2      1.542e-06   2.130e-07    -5.812    -6.672    -0.860     45.31
   ZnHCO3+         6.141e-07   4.558e-07    -6.212    -6.341    -0.129     (0)  
   ZnOH+           5.768e-08   4.282e-08    -7.239    -7.368    -0.129     (0)  
   ZnCO3           1.760e-08   1.853e-08    -7.754    -7.732     0.022     (0)  
   ZnCl2           8.331e-09   8.769e-09    -8.079    -8.057     0.022    102.03
   ZnOHCl          8.098e-09   8.523e-09    -8.092    -8.069     0.022     (0)  
   Zn(OH)2         2.547e-10   2.681e-10    -9.594    -9.572     0.022     (0)  
   ZnCl3-          9.131e-11   6.486e-11   -10.039   -10.188    -0.149     15.67
   Zn(CO3)2-2      1.692e-12   5.136e-13   -11.772   -12.289    -0.518     (0)  
   ZnCl4-2         7.469e-13   2.143e-13   -12.127   -12.669    -0.542    147.54
   Zn(OH)3-        6.229e-16   4.623e-16   -15.206   -15.335    -0.129     (0)  
   Zn(OH)4-2       1.316e-22   3.996e-23   -21.881   -22.398    -0.518     (0)  
   Zn(HS)2         0.000e+00   0.000e+00   -72.445   -72.423     0.022     (0)  
   Zn(HS)3-        0.000e+00   0.000e+00  -112.742  -112.872    -0.129     (0)  

------------------------------Saturation indices-------------------------------

  Phase               SI** log IAP   log K(298 K,   1 atm)

  Al(OH)3(a)        0.00     10.80   10.80  Al(OH)3
  AlOHSO4          -0.31     -2.51   -2.20  AlOHSO4
  Alunite           8.99      7.59   -1.40  KAl3(SO4)2(OH)6
  Anhydrite        -0.23     -4.55   -4.31  CaSO4
  Aragonite        -3.26    -11.60   -8.34  CaCO3
  Arcanite         -7.80     -9.68   -1.88  K2SO4
  Calcite          -3.15    -11.60   -8.45  CaCO3
  CH4(g)          -44.17    -46.98   -2.80  CH4
  CO2(g)           -2.21     -3.68   -1.47  CO2
  Dolomite         -6.04    -23.12  -17.08  CaMg(CO3)2
  Epsomite         -2.75     -4.49   -1.74  MgSO4:7H2O
  Fe(OH)3           0.00      4.89    4.89  Fe(OH)3
  Fe(OH)3(a)        0.00      4.89    4.89  Fe(OH)3
  FeS(ppt)        -33.98    -37.89   -3.92  FeS
  Gibbsite          2.69     10.80    8.11  Al(OH)3
  Goethite          5.89      4.89   -1.00  FeOOH
  Gypsum            0.00     -4.55   -4.55  CaSO4:2H2O
  H2(g)           -16.97    -20.07   -3.10  H2
  H2O(g)           -1.50     -0.00    1.50  H2O
  H2S(g)          -39.41    -47.35   -7.94  H2S
  Halite           -5.95     -4.38    1.57  NaCl
  Hausmannite     -17.15     43.88   61.03  Mn3O4
  Hematite         13.79      9.79   -4.01  Fe2O3
  Hexahydrite      -2.92     -4.49   -1.57  MgSO4:6H2O
  Jarosite-K       -0.93    -10.14   -9.21  KFe3(SO4)2(OH)6
  Kieserite        -3.32     -4.48   -1.16  MgSO4:H2O
  Mackinawite     -33.25    -37.89   -4.65  FeS
  Manganite        -7.89     17.45   25.34  MnOOH
  Melanterite      -1.66     -3.87   -2.21  FeSO4:7H2O
  Mirabilite       -5.55     -6.26   -0.71  Na2SO4:10H2O
  MnO2            -15.47     25.91   41.38  MnO2
  O2(g)           -49.33    -52.22   -2.89  O2
  Pyrite          -49.84    -68.32  -18.48  FeS2
  Pyrochroite      -6.21      8.99   15.20  Mn(OH)2
  Pyrolusite      -15.47     25.91   41.38  MnO2:H2O
  Rhodochrosite    -0.24    -11.37  -11.13  MnCO3
  Siderite         -0.02    -10.91  -10.89  FeCO3
  Smithsonite      -3.03    -13.03  -10.00  ZnCO3
  Sphalerite      -28.40    -40.02  -11.62  ZnS
  Sulfur          -28.37    -23.48    4.88  S
  Sylvite          -7.00     -6.10    0.90  KCl
  Thenardite       -6.89     -6.24    0.65  Na2SO4
  Zn(OH)2(e)       -4.17      7.33   11.50  Zn(OH)2

**For a gas, SI = log10(fugacity). Fugacity = pressure * phi / 1 atm.
  For ideal gases, phi = 1.


Cell 2.

Using solution 2.	Solution after simulation 1.
Using surface 2.	
Using pure phase assemblage 2.	Pure-phase assemblage after simulation 1.

-------------------------------Phase assemblage--------------------------------

                                                      Moles in assemblage
Phase               SI  log IAP  log K(T, P)   Initial       Final       Delta

Al(OH)3(a)        0.00    10.80     10.80    0.000e+00   4.978e-06   4.978e-06
AlOHSO4          -1.63    -3.83     -2.20    0.000e+00           0   0.000e+00
Calcite           0.00    -8.45     -8.45    1.170e-01   8.280e-02  -3.418e-02
Fe(OH)3           0.00     4.89      4.89    7.999e-01   8.196e-01   1.974e-02
Gypsum            0.00    -4.55     -4.55    3.038e-02   6.268e-02   3.231e-02
MnO2            -16.39    24.99     41.38    9.922e-03           0  -9.922e-03

------------------------------Surface composition------------------------------

Diffuse Double Layer Surface-Complexation Model

Surf          
	  6.784e-17  Surface + diffuse layer charge, eq
	  7.418e-02  Surface charge, eq
	  1.835e-01  sigma, C/m²
	  7.276e-02  psi, V
	 -2.832e+00  -F*psi/RT
	  5.888e-02  exp(-F*psi/RT)
	  6.000e+02  specific area, m²/g
	  3.900e+04  m² for   6.500e+01 g

	Water in diffuse layer: 3.900e-02 kg, 100.0% of total DDL-water.
		      viscosity: 0.00000 mPa s for DDL water.

	Total moles in diffuse layer (excluding water)

	Element       	     Moles
	Al            	  7.0260e-07
	C             	  3.5390e-03
	Ca            	  6.3787e-06
	Cl            	  1.7473e-03
	Cu            	  1.7792e-06
	Fe            	  9.9278e-05
	H             	  2.9899e-03
	K             	  4.3520e-06
	Mg            	  7.9028e-04
	Mn            	 -6.2634e-05
	Na            	  1.4113e-04
	O             	  1.5253e-01
	S             	  3.5610e-02
	Zn            	  1.5310e-07

Surf          
	  1.500e-01  moles
	                                   Mole                     Log
	Species               Moles    Fraction    Molality    Molality

	SurfOH            7.000e-02       0.467   7.017e-02      -1.154
	SurfOH2+          3.856e-02       0.257   3.865e-02      -1.413
	SurfOMn+          3.786e-02       0.252   3.795e-02      -1.421
	SurfO-            2.912e-03       0.019   2.918e-03      -2.535
	SurfOCu+          4.292e-04       0.003   4.302e-04      -3.366
	SurfOZn+          2.450e-04       0.002   2.456e-04      -3.610

-----------------------------Solution composition------------------------------

	Elements           Molality       Moles

	Al                8.509e-06   8.489e-06
	C                 4.347e-02   4.337e-02
	Ca                1.214e-02   1.211e-02
	Cl                1.014e-02   1.012e-02
	Cu                9.811e-06   9.787e-06
	Fe                3.349e-02   3.341e-02
	K                 2.011e-04   2.006e-04
	Mg                1.556e-02   1.553e-02
	Mn                8.444e-03   8.424e-03
	Na                9.455e-03   9.432e-03
	S                 5.437e-02   5.424e-02
	Zn                2.051e-05   2.047e-05

----------------------------Description of solution----------------------------

                                       pH  =   6.319      Charge balance
                                       pe  =   1.236      Adjusted to redox equilibrium
      Specific Conductance (µS/cm,  25°C)  = 8883
                          Density (g/cm³)  =   1.00720
                               Volume (L)  =   1.00179
                        Viscosity (mPa s)  =   0.91208
                        Activity of water  =   0.997
                 Ionic strength (mol/kgw)  =   1.619e-01
                       Mass of water (kg)  =   9.976e-01
                 Total alkalinity (eq/kg)  =   3.012e-02
                       Total CO2 (mol/kg)  =   4.347e-02
                         Temperature (°C)  =  25.00
                  Electrical balance (eq)  =   2.066e-14
 Percent error, 100*(Cat-|An|)/(Cat+|An|)  =   0.00
                               Iterations  =   1 (15 overall)
                                  Total H  = 1.107763e+02
                                  Total O  = 5.570689e+01

----------------------------Distribution of species----------------------------

                                               Log       Log       Log    mole V
   Species          Molality    Activity  Molality  Activity     Gamma   cm³/mol

   H+              5.953e-07   4.797e-07    -6.225    -6.319    -0.094      0.00
   OH-             2.907e-08   2.104e-08    -7.537    -7.677    -0.140     -3.58
   H2O             5.551e+01   9.974e-01     1.744    -0.001     0.000     18.07
Al            8.509e-06
   Al(OH)4-        3.814e-06   2.836e-06    -5.419    -5.547    -0.129     (0)  
   Al(OH)2+        3.113e-06   2.363e-06    -5.507    -5.627    -0.120     (0)  
   Al(OH)3         6.973e-07   7.238e-07    -6.157    -6.140     0.016     (0)  
   AlOH+2          4.369e-07   1.450e-07    -6.360    -6.839    -0.479    -26.99
   AlSO4+          3.022e-07   2.247e-07    -6.520    -6.648    -0.129     (0)  
   Al(SO4)2-       9.671e-08   7.191e-08    -7.015    -7.143    -0.129     (0)  
   Al+3            4.898e-08   7.021e-09    -7.310    -8.154    -0.844    -40.91
   AlHSO4+2        2.929e-14   9.558e-15   -13.533   -14.020    -0.486     (0)  
C(-4)         1.206e-38
   CH4             1.206e-38   1.252e-38   -37.919   -37.902     0.016     35.46
C(4)          4.347e-02
   HCO3-           1.706e-02   1.299e-02    -1.768    -1.886    -0.118     25.74
   CO2             1.371e-02   1.405e-02    -1.863    -1.852     0.011     34.79
   FeHCO3+         9.041e-03   6.834e-03    -2.044    -2.165    -0.122     (0)  
   MnHCO3+         2.699e-03   2.031e-03    -2.569    -2.692    -0.124     (0)  
   MgHCO3+         5.680e-04   4.170e-04    -3.246    -3.380    -0.134      5.70
   MnCO3           1.704e-04   1.769e-04    -3.768    -3.752     0.016     (0)  
   FeCO3           1.544e-04   1.602e-04    -3.811    -3.795     0.016     (0)  
   NaHCO3          3.978e-05   4.208e-05    -4.400    -4.376     0.024     17.66
   ZnHCO3+         6.028e-06   4.556e-06    -5.220    -5.341    -0.122     (0)  
   CaCO3           5.770e-06   5.989e-06    -5.239    -5.223     0.016    -14.60
   CO3-2           3.826e-06   1.270e-06    -5.417    -5.896    -0.479     -2.83
   MgCO3           3.203e-06   3.324e-06    -5.495    -5.478     0.016    -17.09
   (CO2)2          3.130e-06   3.208e-06    -5.504    -5.494     0.011     68.75
   KHCO3           7.168e-07   7.440e-07    -6.145    -6.128     0.016     21.42
   ZnCO3           6.801e-07   7.059e-07    -6.167    -6.151     0.016     (0)  
   CuHCO3+         1.081e-07   8.169e-08    -6.966    -7.088    -0.122     (0)  
   CuCO3           8.243e-08   8.556e-08    -7.084    -7.068     0.016     (0)  
   Zn(CO3)2-2      5.872e-08   1.916e-08    -7.231    -7.718    -0.486     (0)  
   CaHCO3+         4.162e-09   3.197e-09    -8.381    -8.495    -0.114      9.86
   Cu(CO3)2-2      4.191e-10   1.368e-10    -9.378    -9.864    -0.486     (0)  
Ca            1.214e-02
   Ca+2            8.240e-03   2.808e-03    -2.084    -2.552    -0.468    -17.28
   CaSO4           3.898e-03   3.963e-03    -2.409    -2.402     0.007      7.22
   CaCO3           5.770e-06   5.989e-06    -5.239    -5.223     0.016    -14.60
   CaHSO4+         2.108e-08   1.593e-08    -7.676    -7.798    -0.122     (0)  
   CaHCO3+         4.162e-09   3.197e-09    -8.381    -8.495    -0.114      9.86
   CaOH+           1.282e-09   9.688e-10    -8.892    -9.014    -0.122     (0)  
Cl            1.014e-02
   Cl-             9.987e-03   7.303e-03    -2.001    -2.137    -0.136     18.42
   FeCl+           7.017e-05   5.303e-05    -4.154    -4.275    -0.122     (0)  
   MnCl+           6.936e-05   5.218e-05    -4.159    -4.282    -0.124     -2.89
   CuCl2-          8.779e-06   6.444e-06    -5.057    -5.191    -0.134     (0)  
   CuCl3-2         2.328e-07   7.459e-08    -6.633    -7.127    -0.494     (0)  
   MnCl2           1.603e-07   1.663e-07    -6.795    -6.779     0.016     85.89
   ZnCl+           7.461e-08   5.477e-08    -7.127    -7.261    -0.134    -14.26
   ZnOHCl          1.350e-09   1.401e-09    -8.870    -8.854     0.016     (0)  
   HCl             1.030e-09   1.207e-09    -8.987    -8.918     0.069     20.36
   MnCl3-          4.447e-10   3.346e-10    -9.352    -9.476    -0.124     44.10
   ZnCl2           4.035e-10   4.188e-10    -9.394    -9.378     0.016    102.03
   CuCl+           3.360e-10   2.466e-10    -9.474    -9.608    -0.134      1.07
   ZnCl3-          4.674e-12   3.431e-12   -11.330   -11.465    -0.134     16.08
   CuCl2           9.318e-13   9.672e-13   -12.031   -12.014     0.016     31.02
   ZnCl4-2         3.919e-14   1.256e-14   -13.407   -13.901    -0.494    147.08
   FeCl+2          5.959e-15   1.909e-15   -14.225   -14.719    -0.494     (0)  
   FeCl2+          8.278e-17   6.228e-17   -16.082   -16.206    -0.124     (0)  
   CuCl3-          3.414e-17   2.506e-17   -16.467   -16.601    -0.134     (0)  
   FeCl3           4.382e-20   4.548e-20   -19.358   -19.342     0.016     (0)  
   CuCl4-2         2.863e-21   9.172e-22   -20.543   -21.038    -0.494     (0)  
Cu(1)         9.557e-06
   CuCl2-          8.779e-06   6.444e-06    -5.057    -5.191    -0.134     (0)  
   Cu+             5.451e-07   3.822e-07    -6.263    -6.418    -0.154     (0)  
   CuCl3-2         2.328e-07   7.459e-08    -6.633    -7.127    -0.494     (0)  
Cu(2)         2.537e-07
   CuHCO3+         1.081e-07   8.169e-08    -6.966    -7.088    -0.122     (0)  
   CuCO3           8.243e-08   8.556e-08    -7.084    -7.068     0.016     (0)  
   Cu+2            3.601e-08   1.255e-08    -7.444    -7.901    -0.458    -25.82
   CuSO4           2.498e-08   2.593e-08    -7.602    -7.586     0.016     13.09
   Cu(OH)2         1.092e-09   1.133e-09    -8.962    -8.946     0.016     (0)  
   Cu(CO3)2-2      4.191e-10   1.368e-10    -9.378    -9.864    -0.486     (0)  
   CuOH+           3.554e-10   2.609e-10    -9.449    -9.584    -0.134     (0)  
   CuCl+           3.360e-10   2.466e-10    -9.474    -9.608    -0.134      1.07
   CuCl2           9.318e-13   9.672e-13   -12.031   -12.014     0.016     31.02
   Cu2(OH)2+2      9.125e-14   2.978e-14   -13.040   -13.526    -0.486     (0)  
   Cu(OH)3-        1.878e-16   1.420e-16   -15.726   -15.848    -0.122     (0)  
   CuCl3-          3.414e-17   2.506e-17   -16.467   -16.601    -0.134     (0)  
   CuCl4-2         2.863e-21   9.172e-22   -20.543   -21.038    -0.494     (0)  
   Cu(OH)4-2       1.804e-22   5.889e-23   -21.744   -22.230    -0.486     (0)  
   Cu(HS)3-        0.000e+00   0.000e+00   -87.185   -87.307    -0.122     (0)  
Fe(2)         3.349e-02
   Fe+2            1.510e-02   5.261e-03    -1.821    -2.279    -0.458    -21.32
   FeSO4           9.122e-03   9.468e-03    -2.040    -2.024     0.016     30.28
   FeHCO3+         9.041e-03   6.834e-03    -2.044    -2.165    -0.122     (0)  
   FeCO3           1.544e-04   1.602e-04    -3.811    -3.795     0.016     (0)  
   FeCl+           7.017e-05   5.303e-05    -4.154    -4.275    -0.122     (0)  
   FeOH+           4.597e-06   3.459e-06    -5.337    -5.461    -0.124     (0)  
   FeHSO4+         3.950e-08   2.986e-08    -7.403    -7.525    -0.122     (0)  
   Fe(OH)2         5.897e-11   6.121e-11   -10.229   -10.213     0.016     (0)  
   Fe(OH)3-        6.284e-15   4.728e-15   -14.202   -14.325    -0.124     (0)  
   Fe(HS)2         0.000e+00   0.000e+00   -63.549   -63.533     0.016     (0)  
   Fe(HS)3-        0.000e+00   0.000e+00   -96.476   -96.598    -0.122     (0)  
Fe(3)         1.265e-07
   Fe(OH)2+        1.054e-07   8.001e-08    -6.977    -7.097    -0.120     (0)  
   Fe(OH)3         2.064e-08   2.143e-08    -7.685    -7.669     0.016     (0)  
   FeOH+2          3.627e-10   1.162e-10    -9.440    -9.935    -0.494     (0)  
   Fe(OH)4-        5.353e-11   4.063e-11   -10.271   -10.391    -0.120     (0)  
   FeSO4+          1.277e-12   9.607e-13   -11.894   -12.017    -0.124     (0)  
   Fe(SO4)2-       2.814e-13   2.127e-13   -12.551   -12.672    -0.122     (0)  
   Fe+3            6.039e-14   8.658e-15   -13.219   -14.063    -0.844     (0)  
   FeCl+2          5.959e-15   1.909e-15   -14.225   -14.719    -0.494     (0)  
   FeCl2+          8.278e-17   6.228e-17   -16.082   -16.206    -0.124     (0)  
   Fe2(OH)2+4      3.204e-17   3.635e-19   -16.494   -18.439    -1.945     (0)  
   FeHSO4+2        3.782e-18   1.234e-18   -17.422   -17.909    -0.486     (0)  
   FeCl3           4.382e-20   4.548e-20   -19.358   -19.342     0.016     (0)  
   Fe3(OH)4+5      6.653e-21   6.077e-24   -20.177   -23.216    -3.039     (0)  
H(0)          1.055e-18
   H2              5.277e-19   5.487e-19   -18.278   -18.261     0.017     14.99
K             2.011e-04
   K+              1.762e-04   1.282e-04    -3.754    -3.892    -0.138      9.31
   KSO4-           2.424e-05   1.975e-05    -4.616    -4.705    -0.089     27.72
   KHCO3           7.168e-07   7.440e-07    -6.145    -6.128     0.016     21.42
Mg            1.556e-02
   Mg+2            7.608e-03   2.744e-03    -2.119    -2.562    -0.443    -20.99
   MgSO4           6.747e-03   7.270e-03    -2.171    -2.138     0.032     -0.40
   Mg(SO4)2-2      6.356e-04   2.423e-04    -3.197    -3.616    -0.419     44.49
   MgHCO3+         5.680e-04   4.170e-04    -3.246    -3.380    -0.134      5.70
   MgCO3           3.203e-06   3.324e-06    -5.495    -5.478     0.016    -17.09
   MgOH+           2.670e-08   2.071e-08    -7.573    -7.684    -0.110     (0)  
Mn(2)         8.444e-03
   Mn+2            5.034e-03   1.754e-03    -2.298    -2.756    -0.458    -17.73
   MnHCO3+         2.699e-03   2.031e-03    -2.569    -2.692    -0.124     (0)  
   MnSO4           4.711e-04   4.542e-04    -3.327    -3.343    -0.016     17.15
   MnCO3           1.704e-04   1.769e-04    -3.768    -3.752     0.016     (0)  
   MnCl+           6.936e-05   5.218e-05    -4.159    -4.282    -0.124     -2.89
   MnCl2           1.603e-07   1.663e-07    -6.795    -6.779     0.016     85.89
   MnOH+           1.246e-07   9.374e-08    -6.904    -7.028    -0.124     (0)  
   MnCl3-          4.447e-10   3.346e-10    -9.352    -9.476    -0.124     44.10
   Mn(OH)3-        3.321e-19   2.498e-19   -18.479   -18.602    -0.124     (0)  
Mn(3)         6.516e-27
   Mn+3            6.516e-27   9.341e-28   -26.186   -27.030    -0.844     (0)  
Na            9.455e-03
   Na+             8.641e-03   6.554e-03    -2.063    -2.183    -0.120     -0.99
   NaSO4-          7.734e-04   5.827e-04    -3.112    -3.235    -0.123     18.89
   NaHCO3          3.978e-05   4.208e-05    -4.400    -4.376     0.024     17.66
   Na2SO4          1.802e-09   1.862e-09    -8.744    -8.730     0.014     47.96
O(0)          0.000e+00
   O2              0.000e+00   0.000e+00   -55.860   -55.844     0.016     30.40
S(-2)         4.289e-35
   H2S             3.196e-35   3.317e-35   -34.495   -34.479     0.016     36.27
   HS-             1.093e-35   7.909e-36   -34.962   -35.102    -0.140     20.95
   S-2             0.000e+00   0.000e+00   -41.207   -41.701    -0.494     (0)  
   Zn(HS)2         0.000e+00   0.000e+00   -60.835   -60.819     0.016     (0)  
   Fe(HS)2         0.000e+00   0.000e+00   -63.549   -63.533     0.016     (0)  
   (H2S)2          0.000e+00   0.000e+00   -70.253   -70.237     0.016     30.09
   Cu(HS)3-        0.000e+00   0.000e+00   -87.185   -87.307    -0.122     (0)  
   Zn(HS)3-        0.000e+00   0.000e+00   -94.639   -94.761    -0.122     (0)  
   Fe(HS)3-        0.000e+00   0.000e+00   -96.476   -96.598    -0.122     (0)  
S(6)          5.437e-02
   SO4-2           3.206e-02   1.012e-02    -1.494    -1.995    -0.501     15.40
   FeSO4           9.122e-03   9.468e-03    -2.040    -2.024     0.016     30.28
   MgSO4           6.747e-03   7.270e-03    -2.171    -2.138     0.032     -0.40
   CaSO4           3.898e-03   3.963e-03    -2.409    -2.402     0.007      7.22
   NaSO4-          7.734e-04   5.827e-04    -3.112    -3.235    -0.123     18.89
   Mg(SO4)2-2      6.356e-04   2.423e-04    -3.197    -3.616    -0.419     44.49
   MnSO4           4.711e-04   4.542e-04    -3.327    -3.343    -0.016     17.15
   KSO4-           2.424e-05   1.975e-05    -4.616    -4.705    -0.089     27.72
   ZnSO4           4.944e-06   5.131e-06    -5.306    -5.290     0.016      6.48
   HSO4-           6.245e-07   4.720e-07    -6.204    -6.326    -0.122     40.61
   AlSO4+          3.022e-07   2.247e-07    -6.520    -6.648    -0.129     (0)  
   Al(SO4)2-       9.671e-08   7.191e-08    -7.015    -7.143    -0.129     (0)  
   FeHSO4+         3.950e-08   2.986e-08    -7.403    -7.525    -0.122     (0)  
   CuSO4           2.498e-08   2.593e-08    -7.602    -7.586     0.016     13.09
   Zn(SO4)2-2      2.243e-08   4.031e-09    -7.649    -8.395    -0.745     45.23
   CaHSO4+         2.108e-08   1.593e-08    -7.676    -7.798    -0.122     (0)  
   Na2SO4          1.802e-09   1.862e-09    -8.744    -8.730     0.014     47.96
   FeSO4+          1.277e-12   9.607e-13   -11.894   -12.017    -0.124     (0)  
   Fe(SO4)2-       2.814e-13   2.127e-13   -12.551   -12.672    -0.122     (0)  
   AlHSO4+2        2.929e-14   9.558e-15   -13.533   -14.020    -0.486     (0)  
   FeHSO4+2        3.782e-18   1.234e-18   -17.422   -17.909    -0.486     (0)  
Zn            2.051e-05
   Zn+2            8.696e-06   2.786e-06    -5.061    -5.555    -0.494    -24.55
   ZnHCO3+         6.028e-06   4.556e-06    -5.220    -5.341    -0.122     (0)  
   ZnSO4           4.944e-06   5.131e-06    -5.306    -5.290     0.016      6.48
   ZnCO3           6.801e-07   7.059e-07    -6.167    -6.151     0.016     (0)  
   ZnCl+           7.461e-08   5.477e-08    -7.127    -7.261    -0.134    -14.26
   Zn(CO3)2-2      5.872e-08   1.916e-08    -7.231    -7.718    -0.486     (0)  
   Zn(SO4)2-2      2.243e-08   4.031e-09    -7.649    -8.395    -0.745     45.23
   ZnOH+           8.404e-09   6.352e-09    -8.076    -8.197    -0.122     (0)  
   ZnOHCl          1.350e-09   1.401e-09    -8.870    -8.854     0.016     (0)  
   ZnCl2           4.035e-10   4.188e-10    -9.394    -9.378     0.016    102.03
   Zn(OH)2         1.461e-10   1.516e-10    -9.835    -9.819     0.016     (0)  
   ZnCl3-          4.674e-12   3.431e-12   -11.330   -11.465    -0.134     16.08
   ZnCl4-2         3.919e-14   1.256e-14   -13.407   -13.901    -0.494    147.08
   Zn(OH)3-        1.319e-15   9.969e-16   -14.880   -15.001    -0.122     (0)  
   Zn(OH)4-2       1.006e-21   3.285e-22   -20.997   -21.483    -0.486     (0)  
   Zn(HS)2         0.000e+00   0.000e+00   -60.835   -60.819     0.016     (0)  
   Zn(HS)3-        0.000e+00   0.000e+00   -94.639   -94.761    -0.122     (0)  

------------------------------Saturation indices-------------------------------

  Phase               SI** log IAP   log K(298 K,   1 atm)

  Al(OH)3(a)        0.00     10.80   10.80  Al(OH)3
  AlOHSO4          -1.63     -3.83   -2.20  AlOHSO4
  Alunite           6.96      5.56   -1.40  KAl3(SO4)2(OH)6
  Anhydrite        -0.23     -4.55   -4.31  CaSO4
  Aragonite        -0.11     -8.45   -8.34  CaCO3
  Arcanite         -7.90     -9.78   -1.88  K2SO4
  Calcite           0.00     -8.45   -8.45  CaCO3
  CH4(g)          -35.10    -37.90   -2.80  CH4
  CO2(g)           -0.38     -1.85   -1.47  CO2
  Dolomite          0.18    -16.91  -17.08  CaMg(CO3)2
  Epsomite         -2.83     -4.56   -1.74  MgSO4:7H2O
  Fe(OH)3           0.00      4.89    4.89  Fe(OH)3
  Fe(OH)3(a)        0.00      4.89    4.89  Fe(OH)3
  FeS(ppt)        -27.15    -31.06   -3.92  FeS
  Gibbsite          2.69     10.80    8.11  Al(OH)3
  Goethite          5.89      4.89   -1.00  FeOOH
  Gypsum            0.00     -4.55   -4.55  CaSO4:2H2O
  H2(g)           -15.16    -18.26   -3.10  H2
  H2O(g)           -1.50     -0.00    1.50  H2O
  H2S(g)          -33.48    -41.42   -7.94  H2S
[...]

	Total moles in diffuse layer (excluding water)

	Element       	     Moles
	Al            	  3.4250e-06
	C             	  4.1769e-04
	Ca            	  8.6297e-05
	Cl            	  1.1645e-03
	Cu            	  7.0807e-05
	Fe            	  5.6968e-04
	H             	  4.0235e-04
	K             	  4.8199e-06
	Mg            	  6.2798e-04
	Mn            	 -7.3979e-07
	Na            	  1.7787e-04
	O             	  8.1411e-02
	S             	  2.0039e-02
	Zn            	  4.8823e-10

Surf          
	  1.500e-01  moles
	                                   Mole                     Log
	Species               Moles    Fraction    Molality    Molality

	SurfOH            8.692e-02       0.579   8.697e-02      -1.061
	SurfOMn+          3.560e-02       0.237   3.562e-02      -1.448
	SurfOH2+          1.428e-02       0.095   1.429e-02      -1.845
	SurfO-            1.212e-02       0.081   1.212e-02      -1.916
	SurfOCu+          1.073e-03       0.007   1.073e-03      -2.969
	SurfOZn+          9.114e-06       0.000   9.119e-06      -5.040

-----------------------------Solution composition------------------------------

	Elements           Molality       Moles

	Al                2.884e-05   2.882e-05
	C                 6.727e-03   6.723e-03
	Ca                1.076e-02   1.075e-02
	Cl                9.514e-03   9.509e-03
	Cu                5.945e-04   5.941e-04
	Fe                5.303e-02   5.300e-02
	K                 2.028e-04   2.027e-04
	Mg                1.587e-02   1.586e-02
	Mn                3.237e-04   3.235e-04
	Na                9.539e-03   9.534e-03
	S                 7.696e-02   7.691e-02
	Zn                3.392e-08   3.390e-08

----------------------------Description of solution----------------------------

                                       pH  =   7.175      Charge balance
                                       pe  =  -1.596      Adjusted to redox equilibrium
      Specific Conductance (µS/cm,  25°C)  = 9802
                          Density (g/cm³)  =   1.00849
                               Volume (L)  =   1.00311
                        Viscosity (mPa s)  =   0.91182
                        Activity of water  =   0.998
                 Ionic strength (mol/kgw)  =   1.842e-01
                       Mass of water (kg)  =   9.994e-01
                 Total alkalinity (eq/kg)  =   6.948e-03
                       Total CO2 (mol/kg)  =   6.727e-03
                         Temperature (°C)  =  25.00
                  Electrical balance (eq)  =   2.318e-14
 Percent error, 100*(Cat-|An|)/(Cat+|An|)  =   0.00
                               Iterations  =   1 (9 overall)
                                  Total H  = 1.109559e+02
                                  Total O  = 5.580250e+01

----------------------------Distribution of species----------------------------

                                               Log       Log       Log    mole V
   Species          Molality    Activity  Molality  Activity     Gamma   cm³/mol

   OH-             2.116e-07   1.510e-07    -6.675    -6.821    -0.147     -3.53
   H+              8.352e-08   6.688e-08    -7.078    -7.175    -0.096      0.00
   H2O             5.551e+01   9.976e-01     1.744    -0.001     0.000     18.07
Al            2.884e-05
   Al(OH)4-        2.770e-05   2.035e-05    -4.558    -4.692    -0.134     (0)  
   Al(OH)3         6.937e-07   7.238e-07    -6.159    -6.140     0.018     (0)  
   Al(OH)2+        4.385e-07   3.293e-07    -6.358    -6.482    -0.124     (0)  
   AlOH+2          8.850e-09   2.817e-09    -8.053    -8.550    -0.497    -26.95
   AlSO4+          1.031e-09   7.573e-10    -8.987    -9.121    -0.134     (0)  
   Al(SO4)2-       4.105e-10   3.016e-10    -9.387    -9.521    -0.134     (0)  
   Al+3            1.404e-10   1.902e-11    -9.853   -10.721    -0.868    -40.86
   AlHSO4+2        1.420e-17   4.491e-18   -16.848   -17.348    -0.500     (0)  
C(-4)         1.869e-24
   CH4             1.869e-24   1.950e-24   -23.728   -23.710     0.018     35.46
C(4)          6.727e-03
   HCO3-           2.991e-03   2.254e-03    -2.524    -2.647    -0.123     25.86
   FeHCO3+         2.908e-03   2.180e-03    -2.536    -2.661    -0.125     (0)  
   FeCO3           3.515e-04   3.668e-04    -3.454    -3.436     0.018     (0)  
   CO2             3.304e-04   3.398e-04    -3.481    -3.469     0.012     34.79
   MgHCO3+         9.174e-05   6.646e-05    -4.037    -4.177    -0.140      5.71
   MnHCO3+         2.336e-05   1.738e-05    -4.631    -4.760    -0.128     (0)  
   MnCO3           1.041e-05   1.086e-05    -4.982    -4.964     0.018     (0)  
   NaHCO3          6.738e-06   7.184e-06    -5.171    -5.144     0.028     17.66
   CaCO3           5.740e-06   5.989e-06    -5.241    -5.223     0.018    -14.60
   CO3-2           4.965e-06   1.581e-06    -5.304    -5.801    -0.497     -2.70
   MgCO3           3.643e-06   3.801e-06    -5.439    -5.420     0.018    -17.09
   KHCO3           1.202e-07   1.254e-07    -6.920    -6.902     0.018     21.42
   CuCO3           1.339e-08   1.397e-08    -7.873    -7.855     0.018     (0)  
   CuHCO3+         2.479e-09   1.859e-09    -8.606    -8.731    -0.125     (0)  
   ZnHCO3+         2.058e-09   1.543e-09    -8.687    -8.812    -0.125     (0)  
   (CO2)2          1.825e-09   1.877e-09    -8.739    -8.727     0.012     68.75
   ZnCO3           1.644e-09   1.715e-09    -8.784    -8.766     0.018     (0)  
   CaHCO3+         5.857e-10   4.458e-10    -9.232    -9.351    -0.119      9.87
   Zn(CO3)2-2      1.832e-10   5.795e-11    -9.737   -10.237    -0.500     (0)  
   Cu(CO3)2-2      8.786e-11   2.779e-11   -10.056   -10.556    -0.500     (0)  
Ca            1.076e-02
   Ca+2            6.862e-03   2.256e-03    -2.164    -2.647    -0.483    -17.24
   CaSO4           3.888e-03   3.962e-03    -2.410    -2.402     0.008      7.22
   CaCO3           5.740e-06   5.989e-06    -5.241    -5.223     0.018    -14.60
   CaOH+           7.445e-09   5.583e-09    -8.128    -8.253    -0.125     (0)  
   CaHSO4+         2.961e-09   2.221e-09    -8.529    -8.654    -0.125     (0)  
   CaHCO3+         5.857e-10   4.458e-10    -9.232    -9.351    -0.119      9.87
Cl            9.514e-03
   Cl-             8.302e-03   5.991e-03    -2.081    -2.222    -0.142     18.44
   CuCl2-          5.331e-04   3.862e-04    -3.273    -3.413    -0.140     (0)  
   FeCl+           1.067e-04   8.001e-05    -3.972    -4.097    -0.125     (0)  
   CuCl3-2         1.197e-05   3.667e-06    -4.922    -5.436    -0.514     (0)  
   MnCl+           2.839e-06   2.112e-06    -5.547    -5.675    -0.128     -2.88
   MnCl2           5.295e-09   5.524e-09    -8.276    -8.258     0.018     85.89
   ZnCl+           1.211e-10   8.770e-11    -9.917   -10.057    -0.140    -14.32
   HCl             1.152e-10   1.380e-10    -9.938    -9.860     0.078     20.36
   CuCl+           3.662e-11   2.653e-11   -10.436   -10.576    -0.140      1.11
   ZnOHCl          1.542e-11   1.609e-11   -10.812   -10.793     0.018     (0)  
   MnCl3-          1.225e-11   9.116e-12   -10.912   -11.040    -0.128     44.19
   ZnCl2           5.274e-13   5.502e-13   -12.278   -12.259     0.018    102.03
   CuCl2           8.183e-14   8.537e-14   -13.087   -13.069     0.018     31.02
   ZnCl3-          5.105e-15   3.699e-15   -14.292   -14.432    -0.140     15.93
   ZnCl4-2         3.624e-17   1.111e-17   -16.441   -16.954    -0.514    147.26
   FeCl+2          1.384e-17   4.243e-18   -16.859   -17.372    -0.514     (0)  
   CuCl3-          2.505e-18   1.815e-18   -17.601   -17.741    -0.140     (0)  
   FeCl2+          1.526e-19   1.135e-19   -18.816   -18.945    -0.128     (0)  
   CuCl4-2         1.778e-22   5.450e-23   -21.750   -22.264    -0.514     (0)  
   FeCl3           6.520e-23   6.803e-23   -22.186   -22.167     0.018     (0)  
Cu(1)         5.944e-04
   CuCl2-          5.331e-04   3.862e-04    -3.273    -3.413    -0.140     (0)  
   Cu+             4.939e-05   3.402e-05    -4.306    -4.468    -0.162     (0)  
   CuCl3-2         1.197e-05   3.667e-06    -4.922    -5.436    -0.514     (0)  
Cu(2)         3.262e-08
   CuCO3           1.339e-08   1.397e-08    -7.873    -7.855     0.018     (0)  
   Cu(OH)2         7.330e-09   7.648e-09    -8.135    -8.116     0.018     (0)  
   Cu+2            4.905e-09   1.645e-09    -8.309    -8.784    -0.474    -25.78
   CuSO4           4.055e-09   4.231e-09    -8.392    -8.374     0.018     13.09
   CuHCO3+         2.479e-09   1.859e-09    -8.606    -8.731    -0.125     (0)  
   CuOH+           3.387e-10   2.454e-10    -9.470    -9.610    -0.140     (0)  
   Cu(CO3)2-2      8.786e-11   2.779e-11   -10.056   -10.556    -0.500     (0)  
   CuCl+           3.662e-11   2.653e-11   -10.436   -10.576    -0.140      1.11
   Cu2(OH)2+2      8.333e-14   2.635e-14   -13.079   -13.579    -0.500     (0)  
   CuCl2           8.183e-14   8.537e-14   -13.087   -13.069     0.018     31.02
   Cu(OH)3-        9.165e-15   6.873e-15   -14.038   -14.163    -0.125     (0)  
   CuCl3-          2.505e-18   1.815e-18   -17.601   -17.741    -0.140     (0)  
   Cu(OH)4-2       6.467e-20   2.046e-20   -19.189   -19.689    -0.500     (0)  
   CuCl4-2         1.778e-22   5.450e-23   -21.750   -22.264    -0.514     (0)  
   Cu(HS)3-        0.000e+00   0.000e+00   -42.920   -43.045    -0.125     (0)  
Fe(2)         5.303e-02
   Fe+2            2.884e-02   9.674e-03    -1.540    -2.014    -0.474    -21.27
   FeSO4           2.076e-02   2.166e-02    -1.683    -1.664     0.018     30.28
   FeHCO3+         2.908e-03   2.180e-03    -2.536    -2.661    -0.125     (0)  
   FeCO3           3.515e-04   3.668e-04    -3.454    -3.436     0.018     (0)  
   FeCl+           1.067e-04   8.001e-05    -3.972    -4.097    -0.125     (0)  
   FeOH+           6.132e-05   4.563e-05    -4.212    -4.341    -0.128     (0)  
   FeHSO4+         1.270e-08   9.524e-09    -7.896    -8.021    -0.125     (0)  
   Fe(OH)2         5.552e-09   5.793e-09    -8.256    -8.237     0.018     (0)  
   Fe(OH)3-        4.314e-12   3.210e-12   -11.365   -11.493    -0.128     (0)  
   Fe(HS)2         6.448e-34   6.728e-34   -33.191   -33.172     0.018     (0)  
   Fe(HS)3-        0.000e+00   0.000e+00   -51.064   -51.189    -0.125     (0)  
Fe(3)         3.578e-08
   Fe(OH)3         2.054e-08   2.143e-08    -7.687    -7.669     0.018     (0)  
   Fe(OH)2+        1.485e-08   1.115e-08    -7.828    -7.953    -0.124     (0)  
   Fe(OH)4-        3.881e-10   2.915e-10    -9.411    -9.535    -0.124     (0)  
   FeOH+2          7.367e-12   2.258e-12   -11.133   -11.646    -0.514     (0)  
   FeSO4+          4.352e-15   3.238e-15   -14.361   -14.490    -0.128     (0)  
   Fe(SO4)2-       1.190e-15   8.921e-16   -14.925   -15.050    -0.125     (0)  
   Fe+3            1.732e-16   2.345e-17   -15.762   -16.630    -0.868     (0)  
   FeCl+2          1.384e-17   4.243e-18   -16.859   -17.372    -0.514     (0)  
   FeCl2+          1.526e-19   1.135e-19   -18.816   -18.945    -0.128     (0)  
   Fe2(OH)2+4      1.371e-20   1.372e-22   -19.863   -21.863    -2.000     (0)  
   FeHSO4+2        1.833e-21   5.799e-22   -20.737   -21.237    -0.500     (0)  
   FeCl3           6.520e-23   6.803e-23   -22.186   -22.167     0.018     (0)  
   Fe3(OH)4+5      4.259e-25   3.198e-28   -24.371   -27.495    -3.125     (0)  
H(0)          9.404e-15
   H2              4.702e-15   4.916e-15   -14.328   -14.308     0.019     14.99
K             2.028e-04
   K+              1.734e-04   1.245e-04    -3.761    -3.905    -0.144      9.33
   KSO4-           2.931e-05   2.386e-05    -4.533    -4.622    -0.089     28.25
   KHCO3           1.202e-07   1.254e-07    -6.920    -6.902     0.018     21.42
Mg            1.587e-02
   MgSO4           7.633e-03   8.309e-03    -2.117    -2.080     0.037     -0.40
   Mg+2            7.207e-03   2.520e-03    -2.142    -2.599    -0.456    -20.95
   Mg(SO4)2-2      9.321e-04   3.447e-04    -3.031    -3.463    -0.432     44.85
   MgHCO3+         9.174e-05   6.646e-05    -4.037    -4.177    -0.140      5.71
   MgCO3           3.643e-06   3.801e-06    -5.439    -5.420     0.018    -17.09
   MgOH+           1.775e-07   1.365e-07    -6.751    -6.865    -0.114     (0)  
Mn(2)         3.237e-04
   Mn+2            2.580e-04   8.654e-05    -3.588    -4.063    -0.474    -17.62
   MnSO4           2.907e-05   2.788e-05    -4.537    -4.555    -0.018     17.15
   MnHCO3+         2.336e-05   1.738e-05    -4.631    -4.760    -0.128     (0)  
   MnCO3           1.041e-05   1.086e-05    -4.982    -4.964     0.018     (0)  
   MnCl+           2.839e-06   2.112e-06    -5.547    -5.675    -0.128     -2.88
   MnOH+           4.459e-08   3.318e-08    -7.351    -7.479    -0.128     (0)  
   MnCl2           5.295e-09   5.524e-09    -8.276    -8.258     0.018     85.89
   MnCl3-          1.225e-11   9.116e-12   -10.912   -11.040    -0.128     44.19
   Mn(OH)3-        6.117e-18   4.551e-18   -17.213   -17.342    -0.128     (0)  
Mn(3)         5.012e-31
   Mn+3            5.012e-31   6.787e-32   -30.300   -31.168    -0.868     (0)  
Na            9.539e-03
   Na+             8.577e-03   6.449e-03    -2.067    -2.191    -0.124     -0.95
   NaSO4-          9.554e-04   7.134e-04    -3.020    -3.147    -0.127     19.06
   NaHCO3          6.738e-06   7.184e-06    -5.171    -5.144     0.028     17.66
   Na2SO4          2.160e-09   2.243e-09    -8.665    -8.649     0.016     47.96
O(0)          0.000e+00
   O2              0.000e+00   0.000e+00   -63.766   -63.748     0.018     30.40
S(-2)         1.733e-20
   HS-             1.238e-20   8.833e-21   -19.907   -20.054    -0.147     20.98
   H2S             4.951e-21   5.166e-21   -20.305   -20.287     0.018     36.27
   S-2             5.205e-26   1.595e-26   -25.284   -25.797    -0.514     (0)  
   Fe(HS)2         6.448e-34   6.728e-34   -33.191   -33.172     0.018     (0)  
   Zn(HS)2         3.542e-34   3.696e-34   -33.451   -33.432     0.018     (0)  
   (H2S)2          0.000e+00   0.000e+00   -41.870   -41.852     0.018     30.09
   Cu(HS)3-        0.000e+00   0.000e+00   -42.920   -43.045    -0.125     (0)  
   Fe(HS)3-        0.000e+00   0.000e+00   -51.064   -51.189    -0.125     (0)  
   Zn(HS)3-        0.000e+00   0.000e+00   -52.201   -52.326    -0.125     (0)  
S(6)          7.696e-02
   SO4-2           4.179e-02   1.259e-02    -1.379    -1.900    -0.521     15.48
   FeSO4           2.076e-02   2.166e-02    -1.683    -1.664     0.018     30.28
   MgSO4           7.633e-03   8.309e-03    -2.117    -2.080     0.037     -0.40
   CaSO4           3.888e-03   3.962e-03    -2.410    -2.402     0.008      7.22
   NaSO4-          9.554e-04   7.134e-04    -3.020    -3.147    -0.127     19.06
   Mg(SO4)2-2      9.321e-04   3.447e-04    -3.031    -3.463    -0.432     44.85
   KSO4-           2.931e-05   2.386e-05    -4.533    -4.622    -0.089     28.25
   MnSO4           2.907e-05   2.788e-05    -4.537    -4.555    -0.018     17.15
   HSO4-           1.092e-07   8.189e-08    -6.962    -7.087    -0.125     40.64
   FeHSO4+         1.270e-08   9.524e-09    -7.896    -8.021    -0.125     (0)  
   ZnSO4           1.195e-08   1.246e-08    -7.923    -7.904     0.018      6.48
   CuSO4           4.055e-09   4.231e-09    -8.392    -8.374     0.018     13.09
   CaHSO4+         2.961e-09   2.221e-09    -8.529    -8.654    -0.125     (0)  
   Na2SO4          2.160e-09   2.243e-09    -8.665    -8.649     0.016     47.96
   AlSO4+          1.031e-09   7.573e-10    -8.987    -9.121    -0.134     (0)  
   Al(SO4)2-       4.105e-10   3.016e-10    -9.387    -9.521    -0.134     (0)  
   Zn(SO4)2-2      7.512e-11   1.218e-11   -10.124   -10.914    -0.790     45.26
   FeSO4+          4.352e-15   3.238e-15   -14.361   -14.490    -0.128     (0)  
   Fe(SO4)2-       1.190e-15   8.921e-16   -14.925   -15.050    -0.125     (0)  
   AlHSO4+2        1.420e-17   4.491e-18   -16.848   -17.348    -0.500     (0)  
   FeHSO4+2        1.833e-21   5.799e-22   -20.737   -21.237    -0.500     (0)  
Zn            3.392e-08
   Zn+2            1.774e-08   5.438e-09    -7.751    -8.265    -0.514    -24.51
   ZnSO4           1.195e-08   1.246e-08    -7.923    -7.904     0.018      6.48
   ZnHCO3+         2.058e-09   1.543e-09    -8.687    -8.812    -0.125     (0)  
   ZnCO3           1.644e-09   1.715e-09    -8.784    -8.766     0.018     (0)  
   Zn(CO3)2-2      1.832e-10   5.795e-11    -9.737   -10.237    -0.500     (0)  
   ZnCl+           1.211e-10   8.770e-11    -9.917   -10.057    -0.140    -14.32
   ZnOH+           1.186e-10   8.894e-11    -9.926   -10.051    -0.125     (0)  
   Zn(SO4)2-2      7.512e-11   1.218e-11   -10.124   -10.914    -0.790     45.26
   ZnOHCl          1.542e-11   1.609e-11   -10.812   -10.793     0.018     (0)  
   Zn(OH)2         1.460e-11   1.523e-11   -10.836   -10.817     0.018     (0)  
   ZnCl2           5.274e-13   5.502e-13   -12.278   -12.259     0.018    102.03
   ZnCl3-          5.105e-15   3.699e-15   -14.292   -14.432    -0.140     15.93
   Zn(OH)3-        9.580e-16   7.184e-16   -15.019   -15.144    -0.125     (0)  
   ZnCl4-2         3.624e-17   1.111e-17   -16.441   -16.954    -0.514    147.26
   Zn(OH)4-2       5.369e-21   1.698e-21   -20.270   -20.770    -0.500     (0)  
   Zn(HS)2         3.542e-34   3.696e-34   -33.451   -33.432     0.018     (0)  
   Zn(HS)3-        0.000e+00   0.000e+00   -52.201   -52.326    -0.125     (0)  

------------------------------Saturation indices-------------------------------

  Phase               SI** log IAP   log K(298 K,   1 atm)

  Al(OH)3(a)        0.00     10.80   10.80  Al(OH)3
  AlOHSO4          -3.25     -5.45   -2.20  AlOHSO4
  Alunite           4.57      3.17   -1.40  KAl3(SO4)2(OH)6
  Anhydrite        -0.23     -4.55   -4.31  CaSO4
  Aragonite        -0.11     -8.45   -8.34  CaCO3
  Arcanite         -7.83     -9.71   -1.88  K2SO4
  Calcite           0.00     -8.45   -8.45  CaCO3
  CH4(g)          -20.91    -23.71   -2.80  CH4
  CO2(g)           -2.00     -3.47   -1.47  CO2
  Dolomite          0.24    -16.85  -17.08  CaMg(CO3)2
  Epsomite         -2.77     -4.51   -1.74  MgSO4:7H2O
  Fe(OH)3           0.00      4.89    4.89  Fe(OH)3
  Fe(OH)3(a)        0.00      4.89    4.89  Fe(OH)3
  FeS(ppt)        -10.98    -14.89   -3.92  FeS
  Gibbsite          2.69     10.80    8.11  Al(OH)3
  Goethite          5.89      4.89   -1.00  FeOOH
  Gypsum            0.00     -4.55   -4.55  CaSO4:2H2O
  H2(g)           -11.21    -14.31   -3.10  H2
  H2O(g)           -1.50     -0.00    1.50  H2O
  H2S(g)          -19.29    -27.23   -7.94  H2S
  Halite           -5.98     -4.41    1.57  NaCl
  Hausmannite     -19.02     42.01   61.03  Mn3O4
  Hematite         13.79      9.79   -4.01  Fe2O3
  Hexahydrite      -2.94     -4.50   -1.57  MgSO4:6H2O
  Jarosite-K       -5.34    -14.55   -9.21  KFe3(SO4)2(OH)6
  Kieserite        -3.34     -4.50   -1.16  MgSO4:H2O
  Mackinawite     -10.25    -14.89   -4.65  FeS
  Manganite        -9.48     15.86   25.34  MnOOH
  Melanterite      -1.71     -3.92   -2.21  FeSO4:7H2O
  Mirabilite       -5.59     -6.29   -0.71  Na2SO4:10H2O
  MnO2            -19.94     21.44   41.38  MnO2
  O2(g)           -60.86    -63.75   -2.89  O2
  Pyrite          -12.48    -30.96  -18.48  FeS2
  Pyrochroite      -4.92     10.28   15.20  Mn(OH)2
  Pyrolusite      -19.94     21.44   41.38  MnO2:H2O
  Rhodochrosite     1.27     -9.86  -11.13  MnCO3
  Siderite          3.07     -7.82  -10.89  FeCO3
  Smithsonite      -4.07    -14.07  -10.00  ZnCO3
  Sphalerite       -9.53    -21.14  -11.62  ZnS
  Sulfur          -14.01     -9.13    4.88  S
  Sylvite          -7.03     -6.13    0.90  KCl
  Thenardite       -6.93     -6.28    0.65  Na2SO4
  Zn(OH)2(e)       -5.42      6.08   11.50  Zn(OH)2

**For a gas, SI = log10(fugacity). Fugacity = pressure * phi / 1 atm.
  For ideal gases, phi = 1.

------------------
End of simulation.
------------------

------------------------------------
Reading input data for simulation 2.
------------------------------------

