WARNING: Database file from DATABASE keyword is used; command line argument ignored.
   Input file: Vm0_tc
  Output file: Vm0_tc.out
Database file: ../database/Amm.dat

------------------
Reading data base.
------------------

	SOLUTION_MASTER_SPECIES
	SOLUTION_SPECIES
	PHASES
	GAS_BINARY_PARAMETERS
	EXCHANGE_MASTER_SPECIES
	EXCHANGE_SPECIES
	SURFACE_MASTER_SPECIES
	SURFACE_SPECIES
	MEAN_GAMMAS
	RATES
	END
------------------------------------
Reading input data for simulation 1.
------------------------------------

	DATABASE ../database/Amm.dat
	SELECTED_OUTPUT 101
	    file                 Vm0_tc_101.sel
	USER_PUNCH 101
	    headings Mu SC
	    start
	10 PUNCH STR_F$(MU, 20, 12)
	20 PUNCH STR_F$(SC, 20, 10)
	    end
	SOLUTION 1
	 Na 1e-5
	 K 1e-5
	 Mg 1e-5
	 Ca 1e-5
	 Sr 1e-5
	 Ba 1e-5
	 Cl 1e-5
	 Alkalinity 1e-5
	 S(6) 1e-5
	END
-------------------------------------------
Beginning of initial solution calculations.
-------------------------------------------

Initial solution 1.	

-----------------------------Solution composition------------------------------

	Elements           Molality       Moles

	Alkalinity        1.000e-08   1.000e-08
	Ba                1.000e-08   1.000e-08
	Ca                1.000e-08   1.000e-08
	Cl                1.000e-08   1.000e-08
	K                 1.000e-08   1.000e-08
	Mg                1.000e-08   1.000e-08
	Na                1.000e-08   1.000e-08
	S(6)              1.000e-08   1.000e-08
	Sr                1.000e-08   1.000e-08

----------------------------Description of solution----------------------------

                                       pH  =   7.000    
                                       pe  =   4.000    
      Specific Conductance (µS/cm,  25°C)  = 0
                          Density (g/cm³)  =   0.99704
                               Volume (L)  =   1.00297
                        Viscosity (mPa s)  =   0.89003
                        Activity of water  =   1.000
                 Ionic strength (mol/kgw)  =   2.201e-07
                       Mass of water (kg)  =   1.000e+00
                    Total carbon (mol/kg)  =   1.075e-08
                       Total CO2 (mol/kg)  =   1.075e-08
                         Temperature (°C)  =  25.00
                  Electrical balance (eq)  =   6.000e-08
 Percent error, 100*(Cat-|An|)/(Cat+|An|)  =  17.64
                               Iterations  =   3
                                  Total H  = 1.110124e+02
                                  Total O  = 5.550622e+01

----------------------------Distribution of species----------------------------

                                               Log       Log       Log    mole V
   Species          Molality    Activity  Molality  Activity     Gamma   cm³/mol

   OH-             1.013e-07   1.012e-07    -6.995    -6.995    -0.000     -4.14
   H+              1.001e-07   1.000e-07    -7.000    -7.000    -0.000      0.00
   H2O             5.551e+01   1.000e+00     1.744    -0.000     0.000     18.07
Ba            1.000e-08
   Ba+2            1.000e-08   9.978e-09    -8.000    -8.001    -0.001    -13.74
   BaOH+           3.383e-15   3.381e-15   -14.471   -14.471    -0.000     (0)  
   BaHCO3+         8.393e-16   8.388e-16   -15.076   -15.076    -0.000     (0)  
   BaCO3           2.120e-17   2.120e-17   -16.674   -16.674     0.000    -10.70
C(4)          1.075e-08
   HCO3-           8.775e-09   8.770e-09    -8.057    -8.057    -0.000     24.51
   CO2             1.972e-09   1.972e-09    -8.705    -8.705     0.000     34.79
   CO3-2           4.122e-12   4.113e-12   -11.385   -11.386    -0.001     -4.81
   SrHCO3+         1.339e-15   1.339e-15   -14.873   -14.873    -0.000     (0)  
   MgHCO3+         1.024e-15   1.024e-15   -14.990   -14.990    -0.000      5.45
   BaHCO3+         8.393e-16   8.388e-16   -15.076   -15.076    -0.000     (0)  
   CaCO3           6.894e-17   6.894e-17   -16.162   -16.162     0.000    -14.60
   NaHCO3          4.332e-17   4.332e-17   -16.363   -16.363     0.000     17.66
   MgCO3           3.916e-17   3.916e-17   -16.407   -16.407     0.000    -17.09
   KHCO3           3.915e-17   3.915e-17   -16.407   -16.407     0.000     21.42
   SrCO3           2.620e-17   2.620e-17   -16.582   -16.582     0.000    -14.13
   BaCO3           2.120e-17   2.120e-17   -16.674   -16.674     0.000    -10.70
   (CO2)2          6.321e-20   6.321e-20   -19.199   -19.199     0.000     68.75
   CaHCO3+         7.676e-21   7.672e-21   -20.115   -20.115    -0.000      9.64
Ca            1.000e-08
   Ca+2            1.000e-08   9.978e-09    -8.000    -8.001    -0.001    -18.25
   CaOH+           1.657e-14   1.656e-14   -13.781   -13.781    -0.000     (0)  
   CaSO4           1.389e-14   1.389e-14   -13.857   -13.857     0.000      7.22
   CaCO3           6.894e-17   6.894e-17   -16.162   -16.162     0.000    -14.60
   CaHSO4+         1.164e-20   1.164e-20   -19.934   -19.934    -0.000     (0)  
   CaHCO3+         7.676e-21   7.672e-21   -20.115   -20.115    -0.000      9.64
Cl            1.000e-08
   Cl-             1.000e-08   9.994e-09    -8.000    -8.000    -0.000     18.05
   HCl             3.443e-16   3.443e-16   -15.463   -15.463     0.000     20.36
H(0)          1.416e-25
   H2              7.079e-26   7.079e-26   -25.150   -25.150     0.000     14.99
K             1.000e-08
   K+              1.000e-08   9.994e-09    -8.000    -8.000    -0.000      8.98
   KSO4-           1.518e-15   1.517e-15   -14.819   -14.819    -0.000     16.57
   KHCO3           3.915e-17   3.915e-17   -16.407   -16.407     0.000     21.42
Mg            1.000e-08
   Mg+2            1.000e-08   9.978e-09    -8.000    -8.001    -0.001    -21.93
   MgOH+           3.625e-13   3.623e-13   -12.441   -12.441    -0.000     (0)  
   MgSO4           2.607e-14   2.607e-14   -13.584   -13.584     0.000     -0.40
   MgHCO3+         1.024e-15   1.024e-15   -14.990   -14.990    -0.000      5.45
   MgCO3           3.916e-17   3.916e-17   -16.407   -16.407     0.000    -17.09
   Mg(SO4)2-2      8.586e-22   8.567e-22   -21.066   -21.067    -0.001     25.21
Na            1.000e-08
   Na+             1.000e-08   9.994e-09    -8.000    -8.000    -0.000     -1.52
   NaSO4-          8.765e-16   8.760e-16   -15.057   -15.057    -0.000     16.42
   NaHCO3          4.332e-17   4.332e-17   -16.363   -16.363     0.000     17.66
   Na2SO4          4.269e-27   4.269e-27   -26.370   -26.370     0.000     47.96
O(0)          0.000e+00
   O2              0.000e+00   0.000e+00   -42.063   -42.063     0.000     30.40
S(6)          1.000e-08
   SO4-2           1.000e-08   9.978e-09    -8.000    -8.001    -0.001     14.43
   HSO4-           9.706e-14   9.701e-14   -13.013   -13.013    -0.000     40.25
   MgSO4           2.607e-14   2.607e-14   -13.584   -13.584     0.000     -0.40
   SrSO4           1.941e-14   1.941e-14   -13.712   -13.712     0.000     24.24
   CaSO4           1.389e-14   1.389e-14   -13.857   -13.857     0.000      7.22
   KSO4-           1.518e-15   1.517e-15   -14.819   -14.819    -0.000     16.57
   NaSO4-          8.765e-16   8.760e-16   -15.057   -15.057    -0.000     16.42
   CaHSO4+         1.164e-20   1.164e-20   -19.934   -19.934    -0.000     (0)  
   Mg(SO4)2-2      8.586e-22   8.567e-22   -21.066   -21.067    -0.001     25.21
   Na2SO4          4.269e-27   4.269e-27   -26.370   -26.370     0.000     47.96
Sr            1.000e-08
   Sr+2            1.000e-08   9.978e-09    -8.000    -8.001    -0.001    -18.10
   SrSO4           1.941e-14   1.941e-14   -13.712   -13.712     0.000     24.24
   SrOH+           5.120e-15   5.117e-15   -14.291   -14.291    -0.000     (0)  
   SrHCO3+         1.339e-15   1.339e-15   -14.873   -14.873    -0.000     (0)  
   SrCO3           2.620e-17   2.620e-17   -16.582   -16.582     0.000    -14.13

------------------------------Saturation indices-------------------------------

  Phase               SI** log IAP   log K(298 K,   1 atm)

  Anhydrite       -11.69    -16.00   -4.31  CaSO4
  Aragonite       -11.05    -19.39   -8.34  CaCO3
  Arcanite        -22.12    -24.00   -1.88  K2SO4
  Barite           -6.11    -16.00   -9.89  BaSO4
  Calcite         -10.94    -19.39   -8.45  CaCO3
  Celestite        -9.34    -16.00   -6.66  SrSO4
  CO2(g)           -7.24     -8.71   -1.47  CO2
  Dolomite        -21.69    -38.77  -17.08  CaMg(CO3)2
  Epsomite        -14.26    -16.00   -1.74  MgSO4:7H2O
  Gypsum          -11.45    -16.00   -4.55  CaSO4:2H2O
  H2(g)           -22.05    -25.15   -3.10  H2
  H2O(g)           -1.50     -0.00    1.50  H2O
  Halite          -17.57    -16.00    1.57  NaCl
  Hexahydrite     -14.44    -16.00   -1.57  MgSO4:6H2O
  Kieserite       -14.84    -16.00   -1.16  MgSO4:H2O
  Mirabilite      -23.30    -24.00   -0.71  Na2SO4:10H2O
  O2(g)           -39.17    -42.06   -2.89  O2
  Strontianite    -10.12    -19.39   -9.27  SrCO3
  Sylvite         -16.90    -16.00    0.90  KCl
  Thenardite      -24.65    -24.00    0.65  Na2SO4
  Witherite       -10.83    -19.39   -8.56  BaCO3

**For a gas, SI = log10(fugacity). Fugacity = pressure * phi / 1 atm.
  For ideal gases, phi = 1.

------------------
End of simulation.
------------------

------------------------------------
Reading input data for simulation 2.
------------------------------------

	USE solution 1
	REACTION_TEMPERATURE
	 0 200 in 17
	USER_GRAPH
	 -plot_csv_file Vm0_tc.dat
	 -axis_titles "temp / oC" "molar volume at infinite dilution / (cm3/mol)"
	 -axis_scale x_axis 0 200
	 -axis_scale y_axis -50 30
	 10 graph_x tc 
	 20 graph_y Vm("Na+"), Vm("K+"), Vm("Mg+2"), Vm("Ca+2")
	 30 graph_y Vm("Cl-"), Vm("HCO3-"), Vm("SO4-2")
	 42 print tc
	 48 print "Na+ " "K+ " "Mg+2 " "Ca+2 " "Sr+2 " "Ba+2"
	 50 print Vm("Na+"), Vm("K+"), Vm("Mg+2"), Vm("Ca+2"), Vm("Sr+2"), Vm("Ba+2")
	 58 print "OH- " "Cl- " "HCO3- " "CO3-2 " "SO4-2" "CO2"
	 60 print Vm("OH-"), Vm("Cl-"), Vm("HCO3-"), Vm("CO3-2"), Vm("SO4-2"), Vm("CO2")
	 68 print "NaCO3- " "NaHCO3 "   "NaSO4-"
	 70 print Vm("NaCO3-"), vm("NaHCO3"),   Vm("NaSO4-")
	200 end
	END
-----------------------------------------
Beginning of batch-reaction calculations.
-----------------------------------------

Reaction step 1.

Using solution 1.	
Using temperature 1.	

-----------------------------Solution composition------------------------------

	Elements           Molality       Moles

	Ba                1.000e-08   1.000e-08
	C                 1.075e-08   1.075e-08
	Ca                1.000e-08   1.000e-08
	Cl                1.000e-08   1.000e-08
	K                 1.000e-08   1.000e-08
	Mg                1.000e-08   1.000e-08
	Na                1.000e-08   1.000e-08
	S                 1.000e-08   1.000e-08
	Sr                1.000e-08   1.000e-08

----------------------------Description of solution----------------------------

                                       pH  =   7.472      Charge balance
                                       pe  =  -1.634      Adjusted to redox equilibrium
      Specific Conductance (µS/cm,   0°C)  = 0
                          Density (g/cm³)  =   0.99984
                               Volume (L)  =   1.00016
                        Viscosity (mPa s)  =   1.79177
                        Activity of water  =   1.000
                 Ionic strength (mol/kgw)  =   1.537e-07
                       Mass of water (kg)  =   1.000e+00
                 Total alkalinity (eq/kg)  =   1.000e-08
                       Total CO2 (mol/kg)  =   1.075e-08
                         Temperature (°C)  =   0.00
                  Electrical balance (eq)  =   6.000e-08
 Percent error, 100*(Cat-|An|)/(Cat+|An|)  =  28.92
                               Iterations  =  13
                                  Total H  = 1.110124e+02
                                  Total O  = 5.550622e+01

----------------------------Distribution of species----------------------------

                                               Log       Log       Log    mole V
   Species          Molality    Activity  Molality  Activity     Gamma   cm³/mol

   OH-             3.419e-08   3.417e-08    -7.466    -7.466    -0.000     -6.19
   H+              3.373e-08   3.372e-08    -7.472    -7.472    -0.000      0.00
   H2O             5.551e+01   1.000e+00     1.744    -0.000     0.000     18.02
Ba            1.000e-08
   Ba+2            1.000e-08   9.982e-09    -8.000    -8.001    -0.001    -16.40
   BaOH+           1.004e-14   1.003e-14   -13.998   -13.999    -0.000     (0)  
   BaHCO3+         4.150e-16   4.149e-16   -15.382   -15.382    -0.000     (0)  
   BaCO3           2.074e-17   2.074e-17   -16.683   -16.683     0.000    -11.05
C(-4)         2.198e-28
   CH4             2.198e-28   2.198e-28   -27.658   -27.658     0.000     32.63
C(4)          1.075e-08
   HCO3-           9.528e-09   9.523e-09    -8.021    -8.021    -0.000     21.08
   CO2             1.217e-09   1.217e-09    -8.915    -8.915     0.000     33.49
   CO3-2           6.655e-12   6.643e-12   -11.177   -11.178    -0.001     -9.38
   MgHCO3+         1.070e-15   1.070e-15   -14.970   -14.971    -0.000      4.22
   SrHCO3+         6.182e-16   6.179e-16   -15.209   -15.209    -0.000     (0)  
   BaHCO3+         4.150e-16   4.149e-16   -15.382   -15.382    -0.000     (0)  
   CaCO3           9.058e-17   9.058e-17   -16.043   -16.043     0.000    -14.71
   MgCO3           4.310e-17   4.310e-17   -16.365   -16.365     0.000    -17.05
   NaHCO3          3.613e-17   3.613e-17   -16.442   -16.442     0.000     14.64
   KHCO3           2.730e-17   2.730e-17   -16.564   -16.564     0.000     18.60
   BaCO3           2.074e-17   2.074e-17   -16.683   -16.683     0.000    -11.05
   SrCO3           2.023e-17   2.023e-17   -16.694   -16.694     0.000    -14.27
   (CO2)2          4.946e-21   4.946e-21   -20.306   -20.306     0.000     66.14
   CaHCO3+         1.697e-23   1.696e-23   -22.770   -22.771    -0.000      8.11
Ca            1.000e-08
   Ca+2            1.000e-08   9.982e-09    -8.000    -8.001    -0.001    -18.98
   CaOH+           4.916e-14   4.914e-14   -13.308   -13.309    -0.000     (0)  
   CaSO4           5.896e-15   5.896e-15   -14.229   -14.229     0.000      3.19
   CaCO3           9.058e-17   9.058e-17   -16.043   -16.043     0.000    -14.71
   CaHSO4+         2.424e-21   2.423e-21   -20.615   -20.616    -0.000     (0)  
   CaHCO3+         1.697e-23   1.696e-23   -22.770   -22.771    -0.000      8.11
Cl            1.000e-08
   Cl-             1.000e-08   9.996e-09    -8.000    -8.000    -0.000     16.41
   HCl             1.356e-16   1.356e-16   -15.868   -15.868     0.000     17.71
H(0)          3.922e-15
   H2              1.961e-15   1.961e-15   -14.707   -14.707     0.000     12.27
K             1.000e-08
   K+              1.000e-08   9.996e-09    -8.000    -8.000    -0.000      7.72
   KSO4-           1.470e-15   1.469e-15   -14.833   -14.833    -0.000     17.41
   KHCO3           2.730e-17   2.730e-17   -16.564   -16.564     0.000     18.60
Mg            1.000e-08
   Mg+2            1.000e-08   9.982e-09    -8.000    -8.001    -0.001    -20.87
   MgOH+           9.150e-14   9.146e-14   -13.039   -13.039    -0.000     (0)  
   MgSO4           1.361e-14   1.361e-14   -13.866   -13.866     0.000     -3.69
   MgHCO3+         1.070e-15   1.070e-15   -14.970   -14.971    -0.000      4.22
   MgCO3           4.310e-17   4.310e-17   -16.365   -16.365     0.000    -17.05
   Mg(SO4)2-2      7.489e-22   7.476e-22   -21.126   -21.126    -0.001     18.20
Na            1.000e-08
   Na+             1.000e-08   9.996e-09    -8.000    -8.000    -0.000     -3.59
   NaSO4-          6.627e-16   6.624e-16   -15.179   -15.179    -0.000     14.57
   NaHCO3          3.613e-17   3.613e-17   -16.442   -16.442     0.000     14.64
   Na2SO4          2.005e-28   2.005e-28   -27.698   -27.698     0.000     66.96
O(0)          0.000e+00
   O2              0.000e+00   0.000e+00   -72.057   -72.057     0.000     27.49
S(-2)         5.685e-25
   HS-             3.235e-25   3.233e-25   -24.490   -24.490    -0.000     18.39
   H2S             2.450e-25   2.450e-25   -24.611   -24.611     0.000     26.92
   S-2             1.790e-31   1.787e-31   -30.747   -30.748    -0.001     (0)  
   (H2S)2          0.000e+00   0.000e+00   -50.829   -50.829     0.000     30.91
S(6)          1.000e-08
   SO4-2           1.000e-08   9.982e-09    -8.000    -8.001    -0.001      7.79
   HSO4-           2.020e-14   2.019e-14   -13.695   -13.695    -0.000     37.30
   SrSO4           1.409e-14   1.409e-14   -13.851   -13.851     0.000     22.78
   MgSO4           1.361e-14   1.361e-14   -13.866   -13.866     0.000     -3.69
   CaSO4           5.896e-15   5.896e-15   -14.229   -14.229     0.000      3.19
   KSO4-           1.470e-15   1.469e-15   -14.833   -14.833    -0.000     17.41
   NaSO4-          6.627e-16   6.624e-16   -15.179   -15.179    -0.000     14.57
   CaHSO4+         2.424e-21   2.423e-21   -20.615   -20.616    -0.000     (0)  
   Mg(SO4)2-2      7.489e-22   7.476e-22   -21.126   -21.126    -0.001     18.20
   Na2SO4          2.005e-28   2.005e-28   -27.698   -27.698     0.000     66.96
Sr            1.000e-08
   Sr+2            1.000e-08   9.982e-09    -8.000    -8.001    -0.001    -17.57
   SrOH+           1.519e-14   1.518e-14   -13.818   -13.819    -0.000     (0)  
   SrSO4           1.409e-14   1.409e-14   -13.851   -13.851     0.000     22.78
   SrHCO3+         6.182e-16   6.179e-16   -15.209   -15.209    -0.000     (0)  
   SrCO3           2.023e-17   2.023e-17   -16.694   -16.694     0.000    -14.27

------------------------------Saturation indices-------------------------------

  Phase               SI** log IAP   log K(273 K,   1 atm)

  Anhydrite       -12.06    -16.00   -3.94  CaSO4
  Aragonite       -10.96    -19.18   -8.22  CaCO3
  Arcanite        -21.69    -24.00   -2.31  K2SO4
  Barite           -5.75    -16.00  -10.25  BaSO4
  Calcite         -10.87    -19.18   -8.30  CaCO3
  Celestite        -9.47    -16.00   -6.53  SrSO4
  CH4(g)          -25.18    -27.66   -2.47  CH4
  CO2(g)           -7.81     -8.91   -1.11  CO2
  Dolomite        -21.54    -38.36  -16.82  CaMg(CO3)2
  Epsomite        -14.11    -16.00   -1.89  MgSO4:7H2O
  Gypsum          -11.49    -16.00   -4.52  CaSO4:2H2O
  H2(g)           -11.68    -14.71   -3.03  H2
  H2O(g)           -2.21     -0.00    2.21  H2O
  H2S(g)          -23.95    -31.96   -8.01  H2S
  Halite          -17.55    -16.00    1.55  NaCl
  Hexahydrite     -14.40    -16.00   -1.60  MgSO4:6H2O
  Kieserite       -14.50    -16.00   -1.50  MgSO4:H2O
  Mirabilite      -21.59    -24.00   -2.41  Na2SO4:10H2O
  O2(g)           -69.40    -72.06   -2.66  O2
  Strontianite     -9.84    -19.18   -9.34  SrCO3
  Sulfur          -18.45    -12.94    5.52  S
  Sylvite         -16.76    -16.00    0.76  KCl
  Thenardite      -24.96    -24.00    0.96  Na2SO4
  Witherite       -10.44    -19.18   -8.74  BaCO3

**For a gas, SI = log10(fugacity). Fugacity = pressure * phi / 1 atm.
  For ideal gases, phi = 1.

Reaction step 2.

Using solution 1.	
Using temperature 1.	

-----------------------------Solution composition------------------------------

	Elements           Molality       Moles

	Ba                1.000e-08   1.000e-08
	C                 1.075e-08   1.075e-08
	Ca                1.000e-08   1.000e-08
	Cl                1.000e-08   1.000e-08
	K                 1.000e-08   1.000e-08
	Mg                1.000e-08   1.000e-08
	Na                1.000e-08   1.000e-08
	S                 1.000e-08   1.000e-08
	Sr                1.000e-08   1.000e-08

----------------------------Description of solution----------------------------

                                       pH  =   7.221      Charge balance
                                       pe  =  -1.414      Adjusted to redox equilibrium
      Specific Conductance (µS/cm,  12°C)  = 0
                          Density (g/cm³)  =   0.99944
                               Volume (L)  =   1.00056
                        Viscosity (mPa s)  =   1.21708
                        Activity of water  =   1.000
                 Ionic strength (mol/kgw)  =   1.802e-07
                       Mass of water (kg)  =   1.000e+00
                 Total alkalinity (eq/kg)  =   1.000e-08
                       Total CO2 (mol/kg)  =   1.075e-08
                         Temperature (°C)  =  12.50
                  Electrical balance (eq)  =   6.000e-08
 Percent error, 100*(Cat-|An|)/(Cat+|An|)  =  23.05
                               Iterations  =  13
                                  Total H  = 1.110124e+02
                                  Total O  = 5.550622e+01

----------------------------Distribution of species----------------------------

                                               Log       Log       Log    mole V
   Species          Molality    Activity  Molality  Activity     Gamma   cm³/mol

   OH-             6.094e-08   6.091e-08    -7.215    -7.215    -0.000     -4.83
   H+              6.017e-08   6.014e-08    -7.221    -7.221    -0.000      0.00
   H2O             5.551e+01   1.000e+00     1.744    -0.000     0.000     18.03
Ba            1.000e-08
   Ba+2            1.000e-08   9.980e-09    -8.000    -8.001    -0.001    -14.76
   BaOH+           5.626e-15   5.623e-15   -14.250   -14.250    -0.000     (0)  
   BaHCO3+         5.951e-16   5.948e-16   -15.225   -15.226    -0.000     (0)  
   BaCO3           2.144e-17   2.144e-17   -16.669   -16.669     0.000    -10.84
C(-4)         7.237e-30
   CH4             7.237e-30   7.237e-30   -29.140   -29.140     0.000     34.26
C(4)          1.075e-08
   HCO3-           9.219e-09   9.214e-09    -8.035    -8.036    -0.000     23.27
   CO2             1.527e-09   1.527e-09    -8.816    -8.816     0.000     34.19
   CO3-2           5.356e-12   5.346e-12   -11.271   -11.272    -0.001     -6.38
   MgHCO3+         1.036e-15   1.035e-15   -14.985   -14.985    -0.000      5.00
   SrHCO3+         9.175e-16   9.170e-16   -15.037   -15.038    -0.000     (0)  
   BaHCO3+         5.951e-16   5.948e-16   -15.225   -15.226    -0.000     (0)  
   CaCO3           7.433e-17   7.433e-17   -16.129   -16.129     0.000    -14.64
   MgCO3           4.202e-17   4.202e-17   -16.377   -16.377     0.000    -17.07
   NaHCO3          3.972e-17   3.972e-17   -16.401   -16.401     0.000     16.48
   KHCO3           3.329e-17   3.329e-17   -16.478   -16.478     0.000     20.31
   SrCO3           2.354e-17   2.354e-17   -16.628   -16.628     0.000    -14.19
   BaCO3           2.144e-17   2.144e-17   -16.669   -16.669     0.000    -10.84
   (CO2)2          1.866e-20   1.866e-20   -19.729   -19.729     0.000     67.55
   CaHCO3+         4.545e-22   4.543e-22   -21.342   -21.343    -0.000      9.06
Ca            1.000e-08
   Ca+2            1.000e-08   9.980e-09    -8.000    -8.001    -0.001    -18.47
   CaOH+           2.755e-14   2.754e-14   -13.560   -13.560    -0.000     (0)  
   CaSO4           9.125e-15   9.125e-15   -14.040   -14.040     0.000      5.64
   CaCO3           7.433e-17   7.433e-17   -16.129   -16.129     0.000    -14.64
   CaHSO4+         5.412e-21   5.410e-21   -20.267   -20.267    -0.000     (0)  
   CaHCO3+         4.545e-22   4.543e-22   -21.342   -21.343    -0.000      9.06
Cl            1.000e-08
   Cl-             1.000e-08   9.995e-09    -8.000    -8.000    -0.000     17.51
   HCl             2.238e-16   2.238e-16   -15.650   -15.650     0.000     19.32
H(0)          3.922e-15
   H2              1.961e-15   1.961e-15   -14.707   -14.707     0.000     13.90
K             1.000e-08
   K+              1.000e-08   9.995e-09    -8.000    -8.000    -0.000      8.49
   KSO4-           1.467e-15   1.467e-15   -14.833   -14.834    -0.000     17.03
   KHCO3           3.329e-17   3.329e-17   -16.478   -16.478     0.000     20.31
Mg            1.000e-08
   Mg+2            1.000e-08   9.980e-09    -8.000    -8.001    -0.001    -21.44
   MgOH+           1.856e-13   1.855e-13   -12.731   -12.732    -0.000     (0)  
   MgSO4           1.887e-14   1.887e-14   -13.724   -13.724     0.000     -1.70
   MgHCO3+         1.036e-15   1.035e-15   -14.985   -14.985    -0.000      5.00
   MgCO3           4.202e-17   4.202e-17   -16.377   -16.377     0.000    -17.07
   Mg(SO4)2-2      7.925e-22   7.909e-22   -21.101   -21.102    -0.001     22.32
Na            1.000e-08
   Na+             1.000e-08   9.995e-09    -8.000    -8.000    -0.000     -2.33
   NaSO4-          7.625e-16   7.622e-16   -15.118   -15.118    -0.000     15.85
   NaHCO3          3.972e-17   3.972e-17   -16.401   -16.401     0.000     16.48
   Na2SO4          9.965e-28   9.965e-28   -27.002   -27.002     0.000     55.41
O(0)          0.000e+00
   O2              0.000e+00   0.000e+00   -67.291   -67.291     0.000     29.24
S(-2)         1.437e-26
   HS-             7.978e-27   7.974e-27   -26.098   -26.098    -0.000     19.80
   H2S             6.391e-27   6.391e-27   -26.194   -26.194     0.000     32.57
   S-2             6.565e-33   6.553e-33   -32.183   -32.184    -0.001     (0)  
   (H2S)2          0.000e+00   0.000e+00   -53.817   -53.817     0.000     30.56
S(6)          1.000e-08
   SO4-2           1.000e-08   9.980e-09    -8.000    -8.001    -0.001     12.08
   HSO4-           4.511e-14   4.508e-14   -13.346   -13.346    -0.000     39.16
   MgSO4           1.887e-14   1.887e-14   -13.724   -13.724     0.000     -1.70
   SrSO4           1.666e-14   1.666e-14   -13.778   -13.778     0.000     23.67
   CaSO4           9.125e-15   9.125e-15   -14.040   -14.040     0.000      5.64
   KSO4-           1.467e-15   1.467e-15   -14.833   -14.834    -0.000     17.03
   NaSO4-          7.625e-16   7.622e-16   -15.118   -15.118    -0.000     15.85
   CaHSO4+         5.412e-21   5.410e-21   -20.267   -20.267    -0.000     (0)  
   Mg(SO4)2-2      7.925e-22   7.909e-22   -21.101   -21.102    -0.001     22.32
   Na2SO4          9.965e-28   9.965e-28   -27.002   -27.002     0.000     55.41
Sr            1.000e-08
   Sr+2            1.000e-08   9.980e-09    -8.000    -8.001    -0.001    -17.85
   SrSO4           1.666e-14   1.666e-14   -13.778   -13.778     0.000     23.67
   SrOH+           8.515e-15   8.511e-15   -14.070   -14.070    -0.000     (0)  
   SrHCO3+         9.175e-16   9.170e-16   -15.037   -15.038    -0.000     (0)  
   SrCO3           2.354e-17   2.354e-17   -16.628   -16.628     0.000    -14.19

------------------------------Saturation indices-------------------------------

  Phase               SI** log IAP   log K(285 K,   1 atm)

  Anhydrite       -11.88    -16.00   -4.12  CaSO4
  Aragonite       -11.01    -19.27   -8.27  CaCO3
  Arcanite        -21.94    -24.00   -2.07  K2SO4
  Barite           -5.95    -16.00  -10.05  BaSO4
  Calcite         -10.91    -19.27   -8.36  CaCO3
  Celestite        -9.41    -16.00   -6.59  SrSO4
  CH4(g)          -26.48    -29.14   -2.66  CH4
  CO2(g)           -7.51     -8.82   -1.31  CO2
  Dolomite        -21.64    -38.55  -16.91  CaMg(CO3)2
  Epsomite        -14.19    -16.00   -1.82  MgSO4:7H2O
  Gypsum          -11.49    -16.00   -4.52  CaSO4:2H2O
  H2(g)           -11.64    -14.71   -3.07  H2
  H2O(g)           -1.84     -0.00    1.84  H2O
  H2S(g)          -25.35    -33.32   -7.97  H2S
  Halite          -17.56    -16.00    1.56  NaCl
  Hexahydrite     -14.42    -16.00   -1.58  MgSO4:6H2O
  Kieserite       -14.72    -16.00   -1.28  MgSO4:H2O
  Mirabilite      -22.41    -24.00   -1.59  Na2SO4:10H2O
  O2(g)           -64.50    -67.29   -2.79  O2
  Strontianite     -9.99    -19.27   -9.28  SrCO3
  Sulfur          -19.77    -14.58    5.19  S
  Sylvite         -16.84    -16.00    0.83  KCl
  Thenardite      -24.81    -24.00    0.81  Na2SO4
  Witherite       -10.66    -19.27   -8.61  BaCO3

**For a gas, SI = log10(fugacity). Fugacity = pressure * phi / 1 atm.
  For ideal gases, phi = 1.

Reaction step 3.

Using solution 1.	
Using temperature 1.	

-----------------------------Solution composition------------------------------

	Elements           Molality       Moles

	Ba                1.000e-08   1.000e-08
	C                 1.075e-08   1.075e-08
	Ca                1.000e-08   1.000e-08
	Cl                1.000e-08   1.000e-08
	K                 1.000e-08   1.000e-08
	Mg                1.000e-08   1.000e-08
	Na                1.000e-08   1.000e-08
	S                 1.000e-08   1.000e-08
	Sr                1.000e-08   1.000e-08

----------------------------Description of solution----------------------------

                                       pH  =   7.000      Charge balance
                                       pe  =  -1.221      Adjusted to redox equilibrium
      Specific Conductance (µS/cm,  25°C)  = 0
                          Density (g/cm³)  =   0.99704
                               Volume (L)  =   1.00297
                        Viscosity (mPa s)  =   0.89003
                        Activity of water  =   1.000
                 Ionic strength (mol/kgw)  =   2.201e-07
                       Mass of water (kg)  =   1.000e+00
                 Total alkalinity (eq/kg)  =   1.000e-08
                       Total CO2 (mol/kg)  =   1.075e-08
                         Temperature (°C)  =  25.00
                  Electrical balance (eq)  =   6.000e-08
 Percent error, 100*(Cat-|An|)/(Cat+|An|)  =  17.64
                               Iterations  =  13
                                  Total H  = 1.110124e+02
                                  Total O  = 5.550622e+01

----------------------------Distribution of species----------------------------

                                               Log       Log       Log    mole V
   Species          Molality    Activity  Molality  Activity     Gamma   cm³/mol

   OH-             1.013e-07   1.012e-07    -6.995    -6.995    -0.000     -4.14
   H+              1.001e-07   1.000e-07    -7.000    -7.000    -0.000      0.00
   H2O             5.551e+01   1.000e+00     1.744    -0.000     0.000     18.07
Ba            1.000e-08
   Ba+2            1.000e-08   9.978e-09    -8.000    -8.001    -0.001    -13.74
   BaOH+           3.383e-15   3.381e-15   -14.471   -14.471    -0.000     (0)  
   BaHCO3+         8.393e-16   8.388e-16   -15.076   -15.076    -0.000     (0)  
   BaCO3           2.120e-17   2.120e-17   -16.674   -16.674     0.000    -10.70
C(-4)         2.852e-31
   CH4             2.852e-31   2.852e-31   -30.545   -30.545     0.000     35.46
C(4)          1.075e-08
   HCO3-           8.775e-09   8.770e-09    -8.057    -8.057    -0.000     24.51
   CO2             1.972e-09   1.972e-09    -8.705    -8.705     0.000     34.79
   CO3-2           4.122e-12   4.113e-12   -11.385   -11.386    -0.001     -4.81
   SrHCO3+         1.339e-15   1.339e-15   -14.873   -14.873    -0.000     (0)  
   MgHCO3+         1.024e-15   1.024e-15   -14.990   -14.990    -0.000      5.45
   BaHCO3+         8.393e-16   8.388e-16   -15.076   -15.076    -0.000     (0)  
   CaCO3           6.894e-17   6.894e-17   -16.162   -16.162     0.000    -14.60
   NaHCO3          4.332e-17   4.332e-17   -16.363   -16.363     0.000     17.66
   MgCO3           3.916e-17   3.916e-17   -16.407   -16.407     0.000    -17.09
   KHCO3           3.915e-17   3.915e-17   -16.407   -16.407     0.000     21.42
   SrCO3           2.620e-17   2.620e-17   -16.582   -16.582     0.000    -14.13
   BaCO3           2.120e-17   2.120e-17   -16.674   -16.674     0.000    -10.70
   (CO2)2          6.321e-20   6.321e-20   -19.199   -19.199     0.000     68.75
   CaHCO3+         7.676e-21   7.672e-21   -20.115   -20.115    -0.000      9.64
Ca            1.000e-08
   Ca+2            1.000e-08   9.978e-09    -8.000    -8.001    -0.001    -18.25
   CaOH+           1.657e-14   1.656e-14   -13.781   -13.781    -0.000     (0)  
   CaSO4           1.389e-14   1.389e-14   -13.857   -13.857     0.000      7.22
   CaCO3           6.894e-17   6.894e-17   -16.162   -16.162     0.000    -14.60
   CaHSO4+         1.164e-20   1.164e-20   -19.934   -19.934    -0.000     (0)  
   CaHCO3+         7.676e-21   7.672e-21   -20.115   -20.115    -0.000      9.64
Cl            1.000e-08
   Cl-             1.000e-08   9.994e-09    -8.000    -8.000    -0.000     18.05
   HCl             3.443e-16   3.443e-16   -15.463   -15.463     0.000     20.36
H(0)          3.922e-15
   H2              1.961e-15   1.961e-15   -14.707   -14.707     0.000     14.99
K             1.000e-08
   K+              1.000e-08   9.994e-09    -8.000    -8.000    -0.000      8.98
   KSO4-           1.518e-15   1.517e-15   -14.819   -14.819    -0.000     16.57
   KHCO3           3.915e-17   3.915e-17   -16.407   -16.407     0.000     21.42
Mg            1.000e-08
   Mg+2            1.000e-08   9.978e-09    -8.000    -8.001    -0.001    -21.93
   MgOH+           3.625e-13   3.623e-13   -12.441   -12.441    -0.000     (0)  
   MgSO4           2.607e-14   2.607e-14   -13.584   -13.584     0.000     -0.40
   MgHCO3+         1.024e-15   1.024e-15   -14.990   -14.990    -0.000      5.45
   MgCO3           3.916e-17   3.916e-17   -16.407   -16.407     0.000    -17.09
   Mg(SO4)2-2      8.586e-22   8.567e-22   -21.066   -21.067    -0.001     25.21
Na            1.000e-08
   Na+             1.000e-08   9.994e-09    -8.000    -8.000    -0.000     -1.52
   NaSO4-          8.765e-16   8.760e-16   -15.057   -15.057    -0.000     16.42
   NaHCO3          4.332e-17   4.332e-17   -16.363   -16.363     0.000     17.66
   Na2SO4          4.269e-27   4.269e-27   -26.370   -26.370     0.000     47.96
O(0)          0.000e+00
   O2              0.000e+00   0.000e+00   -62.948   -62.948     0.000     30.40
S(-2)         4.921e-28
   HS-             2.626e-28   2.625e-28   -27.581   -27.581    -0.000     20.57
   H2S             2.295e-28   2.295e-28   -27.639   -27.639     0.000     36.27
   S-2             3.177e-34   3.170e-34   -33.498   -33.499    -0.001     (0)  
   (H2S)2          0.000e+00   0.000e+00   -56.557   -56.557     0.000     30.09
S(6)          1.000e-08
   SO4-2           1.000e-08   9.978e-09    -8.000    -8.001    -0.001     14.43
   HSO4-           9.706e-14   9.701e-14   -13.013   -13.013    -0.000     40.25
   MgSO4           2.607e-14   2.607e-14   -13.584   -13.584     0.000     -0.40
   SrSO4           1.941e-14   1.941e-14   -13.712   -13.712     0.000     24.24
   CaSO4           1.389e-14   1.389e-14   -13.857   -13.857     0.000      7.22
   KSO4-           1.518e-15   1.517e-15   -14.819   -14.819    -0.000     16.57
   NaSO4-          8.765e-16   8.760e-16   -15.057   -15.057    -0.000     16.42
   CaHSO4+         1.164e-20   1.164e-20   -19.934   -19.934    -0.000     (0)  
   Mg(SO4)2-2      8.586e-22   8.567e-22   -21.066   -21.067    -0.001     25.21
   Na2SO4          4.269e-27   4.269e-27   -26.370   -26.370     0.000     47.96
Sr            1.000e-08
   Sr+2            1.000e-08   9.978e-09    -8.000    -8.001    -0.001    -18.10
   SrSO4           1.941e-14   1.941e-14   -13.712   -13.712     0.000     24.24
   SrOH+           5.120e-15   5.117e-15   -14.291   -14.291    -0.000     (0)  
   SrHCO3+         1.339e-15   1.339e-15   -14.873   -14.873    -0.000     (0)  
   SrCO3           2.620e-17   2.620e-17   -16.582   -16.582     0.000    -14.13

------------------------------Saturation indices-------------------------------

  Phase               SI** log IAP   log K(298 K,   1 atm)

  Anhydrite       -11.69    -16.00   -4.31  CaSO4
  Aragonite       -11.05    -19.39   -8.34  CaCO3
  Arcanite        -22.12    -24.00   -1.88  K2SO4
  Barite           -6.11    -16.00   -9.89  BaSO4
  Calcite         -10.94    -19.39   -8.45  CaCO3
  Celestite        -9.34    -16.00   -6.66  SrSO4
  CH4(g)          -27.74    -30.54   -2.80  CH4
  CO2(g)           -7.24     -8.71   -1.47  CO2
  Dolomite        -21.69    -38.77  -17.08  CaMg(CO3)2
  Epsomite        -14.26    -16.00   -1.74  MgSO4:7H2O
  Gypsum          -11.45    -16.00   -4.55  CaSO4:2H2O
  H2(g)           -11.61    -14.71   -3.10  H2
  H2O(g)           -1.50     -0.00    1.50  H2O
  H2S(g)          -26.64    -34.58   -7.94  H2S
  Halite          -17.57    -16.00    1.57  NaCl
  Hexahydrite     -14.44    -16.00   -1.57  MgSO4:6H2O
  Kieserite       -14.84    -16.00   -1.16  MgSO4:H2O
  Mirabilite      -23.30    -24.00   -0.71  Na2SO4:10H2O
  O2(g)           -60.06    -62.95   -2.89  O2
  Strontianite    -10.12    -19.39   -9.27  SrCO3
  Sulfur          -20.96    -16.08    4.88  S
  Sylvite         -16.90    -16.00    0.90  KCl
  Thenardite      -24.65    -24.00    0.65  Na2SO4
  Witherite       -10.83    -19.39   -8.56  BaCO3

**For a gas, SI = log10(fugacity). Fugacity = pressure * phi / 1 atm.
  For ideal gases, phi = 1.

Reaction step 4.

Using solution 1.	
Using temperature 1.	

-----------------------------Solution composition------------------------------

	Elements           Molality       Moles

	Ba                1.000e-08   1.000e-08
	C                 1.075e-08   1.075e-08
	Ca                1.000e-08   1.000e-08
	Cl                1.000e-08   1.000e-08
	K                 1.000e-08   1.000e-08
	Mg                1.000e-08   1.000e-08
	Na                1.000e-08   1.000e-08
	S                 1.000e-08   1.000e-08
	Sr                1.000e-08   1.000e-08

----------------------------Description of solution----------------------------

                                       pH  =   6.805      Charge balance
                                       pe  =  -1.053      Adjusted to redox equilibrium
      Specific Conductance (µS/cm,  38°C)  = 0
                          Density (g/cm³)  =   0.99314
                               Volume (L)  =   1.00690
                        Viscosity (mPa s)  =   0.68462
                        Activity of water  =   1.000
                 Ionic strength (mol/kgw)  =   2.767e-07
                       Mass of water (kg)  =   1.000e+00
                 Total alkalinity (eq/kg)  =   1.000e-08
                       Total CO2 (mol/kg)  =   1.075e-08
                         Temperature (°C)  =  37.50
                  Electrical balance (eq)  =   6.000e-08
 Percent error, 100*(Cat-|An|)/(Cat+|An|)  =  13.24
                               Iterations  =  13
                                  Total H  = 1.110124e+02
                                  Total O  = 5.550622e+01

----------------------------Distribution of species----------------------------

                                               Log       Log       Log    mole V
   Species          Molality    Activity  Molality  Activity     Gamma   cm³/mol

   OH-             1.585e-07   1.584e-07    -6.800    -6.800    -0.000     -3.84
   H+              1.567e-07   1.566e-07    -6.805    -6.805    -0.000      0.00
   H2O             5.551e+01   1.000e+00     1.744    -0.000     0.000     18.14
Ba            1.000e-08
   Ba+2            1.000e-08   9.975e-09    -8.000    -8.001    -0.001    -13.07
   BaOH+           2.160e-15   2.159e-15   -14.666   -14.666    -0.000     (0)  
   BaHCO3+         1.159e-15   1.158e-15   -14.936   -14.936    -0.000     (0)  
   BaCO3           2.006e-17   2.006e-17   -16.698   -16.698     0.000    -10.60
C(-4)         1.315e-32
   CH4             1.315e-32   1.315e-32   -31.881   -31.881     0.000     36.44
C(4)          1.075e-08
   HCO3-           8.177e-09   8.171e-09    -8.087    -8.088    -0.000     25.20
   CO2             2.571e-09   2.571e-09    -8.590    -8.590     0.000     35.37
   CO3-2           3.036e-12   3.029e-12   -11.518   -11.519    -0.001     -4.11
   SrHCO3+         1.914e-15   1.913e-15   -14.718   -14.718    -0.000     (0)  
   BaHCO3+         1.159e-15   1.158e-15   -14.936   -14.936    -0.000     (0)  
   MgHCO3+         1.024e-15   1.024e-15   -14.990   -14.990    -0.000      5.70
   CaCO3           6.838e-17   6.838e-17   -16.165   -16.165     0.000    -14.56
   NaHCO3          4.660e-17   4.660e-17   -16.332   -16.332     0.000     18.48
   KHCO3           4.432e-17   4.432e-17   -16.353   -16.353     0.000     22.19
   MgCO3           3.493e-17   3.493e-17   -16.457   -16.457     0.000    -17.09
   SrCO3           2.790e-17   2.790e-17   -16.554   -16.554     0.000    -14.09
   BaCO3           2.006e-17   2.006e-17   -16.698   -16.698     0.000    -10.60
   (CO2)2          1.886e-19   1.886e-19   -18.724   -18.724     0.000     69.91
   CaHCO3+         8.617e-20   8.611e-20   -19.065   -19.065    -0.000     10.02
Ca            1.000e-08
   Ca+2            1.000e-08   9.975e-09    -8.000    -8.001    -0.001    -18.23
   CaSO4           2.083e-14   2.083e-14   -13.681   -13.681     0.000      8.33
   CaOH+           1.058e-14   1.057e-14   -13.976   -13.976    -0.000     (0)  
   CaCO3           6.838e-17   6.838e-17   -16.165   -16.165     0.000    -14.56
   CaHCO3+         8.617e-20   8.611e-20   -19.065   -19.065    -0.000     10.02
   CaHSO4+         2.425e-20   2.423e-20   -19.615   -19.616    -0.000     (0)  
Cl            1.000e-08
   Cl-             1.000e-08   9.994e-09    -8.000    -8.000    -0.000     18.24
   HCl             4.988e-16   4.988e-16   -15.302   -15.302     0.000     21.10
H(0)          3.922e-15
   H2              1.961e-15   1.961e-15   -14.707   -14.707     0.000     15.79
K             1.000e-08
   K+              1.000e-08   9.994e-09    -8.000    -8.000    -0.000      9.31
   KSO4-           1.618e-15   1.617e-15   -14.791   -14.791    -0.000     16.00
   KHCO3           4.432e-17   4.432e-17   -16.353   -16.353     0.000     22.19
Mg            1.000e-08
   Mg+2            9.999e-09   9.974e-09    -8.000    -8.001    -0.001    -22.41
   MgOH+           6.838e-13   6.834e-13   -12.165   -12.165    -0.000     (0)  
   MgSO4           3.586e-14   3.586e-14   -13.445   -13.445     0.000      0.51
   MgHCO3+         1.024e-15   1.024e-15   -14.990   -14.990    -0.000      5.70
   MgCO3           3.493e-17   3.493e-17   -16.457   -16.457     0.000    -17.09
   Mg(SO4)2-2      9.487e-22   9.463e-22   -21.023   -21.024    -0.001     27.41
Na            1.000e-08
   Na+             1.000e-08   9.994e-09    -8.000    -8.000    -0.000     -0.97
   NaSO4-          1.007e-15   1.006e-15   -14.997   -14.997    -0.000     16.54
   NaHCO3          4.660e-17   4.660e-17   -16.332   -16.332     0.000     18.48
   Na2SO4          1.605e-26   1.605e-26   -25.794   -25.794     0.000     42.73
O(0)          0.000e+00
   O2              0.000e+00   0.000e+00   -58.989   -58.989     0.000     31.25
S(-2)         2.211e-29
   HS-             1.116e-29   1.115e-29   -28.952   -28.953    -0.000     20.97
   H2S             1.095e-29   1.095e-29   -28.961   -28.961     0.000     38.91
   S-2             1.962e-35   1.957e-35   -34.707   -34.708    -0.001     (0)  
   (H2S)2          0.000e+00   0.000e+00   -59.075   -59.075     0.000     29.50
S(6)          1.000e-08
   SO4-2           1.000e-08   9.974e-09    -8.000    -8.001    -0.001     15.65
   HSO4-           2.022e-13   2.021e-13   -12.694   -12.695    -0.000     40.89
   MgSO4           3.586e-14   3.586e-14   -13.445   -13.445     0.000      0.51
   SrSO4           2.234e-14   2.234e-14   -13.651   -13.651     0.000     24.63
   CaSO4           2.083e-14   2.083e-14   -13.681   -13.681     0.000      8.33
   KSO4-           1.618e-15   1.617e-15   -14.791   -14.791    -0.000     16.00
   NaSO4-          1.007e-15   1.006e-15   -14.997   -14.997    -0.000     16.54
   CaHSO4+         2.425e-20   2.423e-20   -19.615   -19.616    -0.000     (0)  
   Mg(SO4)2-2      9.487e-22   9.463e-22   -21.023   -21.024    -0.001     27.41
   Na2SO4          1.605e-26   1.605e-26   -25.794   -25.794     0.000     42.73
Sr            1.000e-08
   Sr+2            1.000e-08   9.975e-09    -8.000    -8.001    -0.001    -18.36
   SrSO4           2.234e-14   2.234e-14   -13.651   -13.651     0.000     24.63
   SrOH+           3.270e-15   3.268e-15   -14.486   -14.486    -0.000     (0)  
   SrHCO3+         1.914e-15   1.913e-15   -14.718   -14.718    -0.000     (0)  
   SrCO3           2.790e-17   2.790e-17   -16.554   -16.554     0.000    -14.09

------------------------------Saturation indices-------------------------------

  Phase               SI** log IAP   log K(310 K,   1 atm)

  Anhydrite       -11.48    -16.00   -4.52  CaSO4
  Aragonite       -11.09    -19.52   -8.43  CaCO3
  Arcanite        -22.26    -24.00   -1.74  K2SO4
  Barite           -6.24    -16.00   -9.76  BaSO4
  Calcite         -10.96    -19.52   -8.56  CaCO3
  Celestite        -9.27    -16.00   -6.73  SrSO4
  CH4(g)          -28.98    -31.88   -2.90  CH4
  CO2(g)           -6.99     -8.59   -1.60  CO2
  Dolomite        -21.70    -39.04  -17.34  CaMg(CO3)2
  Epsomite        -14.34    -16.00   -1.66  MgSO4:7H2O
  Gypsum          -11.39    -16.00   -4.61  CaSO4:2H2O
  H2(g)           -11.59    -14.71   -3.12  H2
  H2O(g)           -1.20     -0.00    1.20  H2O
  H2S(g)          -27.84    -35.76   -7.92  H2S
  Halite          -17.58    -16.00    1.58  NaCl
  Hexahydrite     -14.45    -16.00   -1.55  MgSO4:6H2O
  Kieserite       -14.86    -16.00   -1.14  MgSO4:H2O
  Mirabilite      -24.23    -24.00    0.23  Na2SO4:10H2O
  O2(g)           -56.02    -58.99   -2.97  O2
  Strontianite    -10.22    -19.52   -9.30  SrCO3
  Sulfur          -22.06    -17.45    4.60  S
  Sylvite         -16.96    -16.00    0.96  KCl
  Thenardite      -24.48    -24.00    0.47  Na2SO4
  Witherite       -10.95    -19.52   -8.57  BaCO3

**For a gas, SI = log10(fugacity). Fugacity = pressure * phi / 1 atm.
  For ideal gases, phi = 1.

Reaction step 5.

Using solution 1.	
Using temperature 1.	

-----------------------------Solution composition------------------------------

	Elements           Molality       Moles

	Ba                1.000e-08   1.000e-08
	C                 1.075e-08   1.075e-08
	Ca                1.000e-08   1.000e-08
	Cl                1.000e-08   1.000e-08
	K                 1.000e-08   1.000e-08
	Mg                1.000e-08   1.000e-08
	Na                1.000e-08   1.000e-08
	S                 1.000e-08   1.000e-08
	Sr                1.000e-08   1.000e-08

----------------------------Description of solution----------------------------

                                       pH  =   6.633      Charge balance
                                       pe  =  -0.904      Adjusted to redox equilibrium
      Specific Conductance (µS/cm,  50°C)  = 0
                          Density (g/cm³)  =   0.98803
                               Volume (L)  =   1.01212
                        Viscosity (mPa s)  =   0.54652
                        Activity of water  =   1.000
                 Ionic strength (mol/kgw)  =   3.528e-07
                       Mass of water (kg)  =   1.000e+00
                 Total alkalinity (eq/kg)  =   1.000e-08
                       Total CO2 (mol/kg)  =   1.075e-08
                         Temperature (°C)  =  50.00
                  Electrical balance (eq)  =   6.000e-08
 Percent error, 100*(Cat-|An|)/(Cat+|An|)  =   9.91
                               Iterations  =  13
                                  Total H  = 1.110124e+02
                                  Total O  = 5.550622e+01

----------------------------Distribution of species----------------------------

                                               Log       Log       Log    mole V
   Species          Molality    Activity  Molality  Activity     Gamma   cm³/mol

   OH-             2.354e-07   2.352e-07    -6.628    -6.628    -0.000     -3.84
   H+              2.328e-07   2.327e-07    -6.633    -6.633    -0.000      0.00
   H2O             5.551e+01   1.000e+00     1.744    -0.000     0.000     18.23
Ba            1.000e-08
   Ba+2            1.000e-08   9.971e-09    -8.000    -8.001    -0.001    -12.62
   BaHCO3+         1.557e-15   1.556e-15   -14.808   -14.808    -0.000     (0)  
   BaOH+           1.453e-15   1.452e-15   -14.838   -14.838    -0.000     (0)  
   BaCO3           1.814e-17   1.814e-17   -16.741   -16.741     0.000    -10.52
C(-4)         6.935e-34
   CH4             6.935e-34   6.935e-34   -33.159   -33.159     0.000     37.33
C(4)          1.075e-08
   HCO3-           7.418e-09   7.413e-09    -8.130    -8.130    -0.000     25.51
   CO2             3.331e-09   3.331e-09    -8.477    -8.477     0.000     35.97
   CO3-2           2.138e-12   2.132e-12   -11.670   -11.671    -0.001     -4.03
   SrHCO3+         2.663e-15   2.661e-15   -14.575   -14.575    -0.000     (0)  
   BaHCO3+         1.557e-15   1.556e-15   -14.808   -14.808    -0.000     (0)  
   MgHCO3+         1.024e-15   1.024e-15   -14.990   -14.990    -0.000      5.82
   CaCO3           6.931e-17   6.931e-17   -16.159   -16.159     0.000    -14.53
   NaHCO3          4.912e-17   4.912e-17   -16.309   -16.309     0.000     19.08
   KHCO3           4.812e-17   4.812e-17   -16.318   -16.318     0.000     22.76
   MgCO3           2.978e-17   2.978e-17   -16.526   -16.526     0.000    -17.10
   SrCO3           2.840e-17   2.840e-17   -16.547   -16.547     0.000    -14.05
   BaCO3           1.814e-17   1.814e-17   -16.741   -16.741     0.000    -10.52
   CaHCO3+         6.706e-19   6.701e-19   -18.174   -18.174    -0.000     10.26
   (CO2)2          4.883e-19   4.883e-19   -18.311   -18.311     0.000     71.11
Ca            1.000e-08
   Ca+2            1.000e-08   9.971e-09    -8.000    -8.001    -0.001    -18.35
   CaSO4           3.082e-14   3.082e-14   -13.511   -13.511     0.000      9.14
   CaOH+           7.117e-15   7.112e-15   -14.148   -14.148    -0.000     (0)  
   CaCO3           6.931e-17   6.931e-17   -16.159   -16.159     0.000    -14.53
   CaHCO3+         6.706e-19   6.701e-19   -18.174   -18.174    -0.000     10.26
   CaHSO4+         4.905e-20   4.901e-20   -19.309   -19.310    -0.000     (0)  
Cl            1.000e-08
   Cl-             1.000e-08   9.993e-09    -8.000    -8.000    -0.000     18.20
   HCl             6.859e-16   6.859e-16   -15.164   -15.164     0.000     21.66
H(0)          3.922e-15
   H2              1.961e-15   1.961e-15   -14.707   -14.707     0.000     16.42
K             1.000e-08
   K+              1.000e-08   9.993e-09    -8.000    -8.000    -0.000      9.54
   KSO4-           1.769e-15   1.768e-15   -14.752   -14.753    -0.000     15.31
   KHCO3           4.812e-17   4.812e-17   -16.318   -16.318     0.000     22.76
Mg            1.000e-08
   Mg+2            9.999e-09   9.970e-09    -8.000    -8.001    -0.001    -22.91
   MgOH+           1.250e-12   1.249e-12   -11.903   -11.903    -0.000     (0)  
   MgSO4           4.917e-14   4.917e-14   -13.308   -13.308     0.000      1.19
   MgHCO3+         1.024e-15   1.024e-15   -14.990   -14.990    -0.000      5.82
   MgCO3           2.978e-17   2.978e-17   -16.526   -16.526     0.000    -17.10
   Mg(SO4)2-2      1.066e-21   1.063e-21   -20.972   -20.974    -0.001     29.18
Na            1.000e-08
   Na+             1.000e-08   9.993e-09    -8.000    -8.000    -0.000     -0.57
   NaSO4-          1.155e-15   1.154e-15   -14.937   -14.938    -0.000     16.34
   NaHCO3          4.912e-17   4.912e-17   -16.309   -16.309     0.000     19.08
   Na2SO4          5.377e-26   5.377e-26   -25.269   -25.269     0.000     38.85
O(0)          0.000e+00
   O2              0.000e+00   0.000e+00   -55.383   -55.383     0.000     31.92
S(-2)         1.268e-30
   H2S             6.734e-31   6.734e-31   -30.172   -30.172     0.000     40.92
   HS-             5.950e-31   5.945e-31   -30.225   -30.226    -0.000     21.10
   S-2             1.503e-36   1.498e-36   -35.823   -35.824    -0.001     (0)  
   (H2S)2          0.000e+00   0.000e+00   -61.397   -61.397     0.000     28.78
S(6)          1.000e-08
   SO4-2           9.999e-09   9.970e-09    -8.000    -8.001    -0.001     16.07
   HSO4-           4.092e-13   4.089e-13   -12.388   -12.388    -0.000     41.23
   MgSO4           4.917e-14   4.917e-14   -13.308   -13.308     0.000      1.19
   CaSO4           3.082e-14   3.082e-14   -13.511   -13.511     0.000      9.14
   SrSO4           2.543e-14   2.543e-14   -13.595   -13.595     0.000     24.93
   KSO4-           1.769e-15   1.768e-15   -14.752   -14.753    -0.000     15.31
   NaSO4-          1.155e-15   1.154e-15   -14.937   -14.938    -0.000     16.34
   CaHSO4+         4.905e-20   4.901e-20   -19.309   -19.310    -0.000     (0)  
   Mg(SO4)2-2      1.066e-21   1.063e-21   -20.972   -20.974    -0.001     29.18
   Na2SO4          5.377e-26   5.377e-26   -25.269   -25.269     0.000     38.85
Sr            1.000e-08
   Sr+2            1.000e-08   9.971e-09    -8.000    -8.001    -0.001    -18.64
   SrSO4           2.543e-14   2.543e-14   -13.595   -13.595     0.000     24.93
   SrHCO3+         2.663e-15   2.661e-15   -14.575   -14.575    -0.000     (0)  
   SrOH+           2.199e-15   2.198e-15   -14.658   -14.658    -0.000     (0)  
   SrCO3           2.840e-17   2.840e-17   -16.547   -16.547     0.000    -14.05

------------------------------Saturation indices-------------------------------

  Phase               SI** log IAP   log K(323 K,   1 atm)

  Anhydrite       -11.27    -16.00   -4.73  CaSO4
  Aragonite       -11.14    -19.67   -8.54  CaCO3
  Arcanite        -22.37    -24.00   -1.63  K2SO4
  Barite           -6.33    -16.00   -9.67  BaSO4
  Calcite         -10.99    -19.67   -8.69  CaCO3
  Celestite        -9.20    -16.00   -6.80  SrSO4
  CH4(g)          -30.20    -33.16   -2.96  CH4
  CO2(g)           -6.77     -8.48   -1.71  CO2
  Dolomite        -21.69    -39.34  -17.66  CaMg(CO3)2
  Epsomite        -14.42    -16.00   -1.58  MgSO4:7H2O
  Gypsum          -11.30    -16.00   -4.70  CaSO4:2H2O
  H2(g)           -11.58    -14.71   -3.13  H2
  H2O(g)           -0.92     -0.00    0.92  H2O
  H2S(g)          -28.95    -36.86   -7.91  H2S
  Halite          -17.59    -16.00    1.59  NaCl
  Hexahydrite     -14.47    -16.00   -1.53  MgSO4:6H2O
  Kieserite       -14.81    -16.00   -1.19  MgSO4:H2O
  Mirabilite      -25.22    -24.00    1.22  Na2SO4:10H2O
  O2(g)           -52.35    -55.38   -3.03  O2
  Strontianite    -10.30    -19.67   -9.37  SrCO3
  Sulfur          -23.06    -18.71    4.34  S
  Sylvite         -17.02    -16.00    1.02  KCl
  Thenardite      -24.29    -24.00    0.29  Na2SO4
  Witherite       -11.06    -19.67   -8.61  BaCO3

**For a gas, SI = log10(fugacity). Fugacity = pressure * phi / 1 atm.
  For ideal gases, phi = 1.

Reaction step 6.

Using solution 1.	
Using temperature 1.	

-----------------------------Solution composition------------------------------

	Elements           Molality       Moles

	Ba                1.000e-08   1.000e-08
	C                 1.075e-08   1.075e-08
	Ca                1.000e-08   1.000e-08
	Cl                1.000e-08   1.000e-08
	K                 1.000e-08   1.000e-08
	Mg                1.000e-08   1.000e-08
	Na                1.000e-08   1.000e-08
	S                 1.000e-08   1.000e-08
	Sr                1.000e-08   1.000e-08

----------------------------Description of solution----------------------------

                                       pH  =   6.481      Charge balance
                                       pe  =  -0.774      Adjusted to redox equilibrium
      Specific Conductance (µS/cm,  62°C)  = 0
                          Density (g/cm³)  =   0.98189
                               Volume (L)  =   1.01845
                        Viscosity (mPa s)  =   0.44896
                        Activity of water  =   1.000
                 Ionic strength (mol/kgw)  =   4.507e-07
                       Mass of water (kg)  =   1.000e+00
                 Total alkalinity (eq/kg)  =   1.000e-08
                       Total CO2 (mol/kg)  =   1.075e-08
                         Temperature (°C)  =  62.50
                  Electrical balance (eq)  =   6.000e-08
 Percent error, 100*(Cat-|An|)/(Cat+|An|)  =   7.49
                               Iterations  =  13
                                  Total H  = 1.110124e+02
                                  Total O  = 5.550622e+01

----------------------------Distribution of species----------------------------

                                               Log       Log       Log    mole V
   Species          Molality    Activity  Molality  Activity     Gamma   cm³/mol

   OH-             3.342e-07   3.339e-07    -6.476    -6.476    -0.000     -4.06
   H+              3.307e-07   3.304e-07    -6.481    -6.481    -0.000      0.00
   H2O             5.551e+01   1.000e+00     1.744    -0.000     0.000     18.35
Ba            1.000e-08
   Ba+2            1.000e-08   9.966e-09    -8.000    -8.001    -0.001    -12.32
   BaHCO3+         2.027e-15   2.025e-15   -14.693   -14.694    -0.000     (0)  
   BaOH+           1.023e-15   1.022e-15   -14.990   -14.991    -0.000     (0)  
   BaCO3           1.566e-17   1.566e-17   -16.805   -16.805     0.000    -10.46
C(-4)         4.101e-35
   CH4             4.101e-35   4.101e-35   -34.387   -34.387     0.000     38.19
C(4)          1.075e-08
   HCO3-           6.518e-09   6.513e-09    -8.186    -8.186    -0.000     25.53
   CO2             4.231e-09   4.231e-09    -8.374    -8.374     0.000     36.63
   CO3-2           1.438e-12   1.433e-12   -11.842   -11.844    -0.001     -4.43
   SrHCO3+         3.587e-15   3.584e-15   -14.445   -14.446    -0.000     (0)  
   BaHCO3+         2.027e-15   2.025e-15   -14.693   -14.694    -0.000     (0)  
   MgHCO3+         1.015e-15   1.014e-15   -14.994   -14.994    -0.000      5.84
   CaCO3           6.914e-17   6.914e-17   -16.160   -16.160     0.000    -14.51
   NaHCO3          5.044e-17   5.044e-17   -16.297   -16.297     0.000     19.54
   KHCO3           4.992e-17   4.992e-17   -16.302   -16.302     0.000     23.20
   SrCO3           2.759e-17   2.759e-17   -16.559   -16.559     0.000    -14.02
   MgCO3           2.423e-17   2.423e-17   -16.616   -16.616     0.000    -17.09
   BaCO3           1.566e-17   1.566e-17   -16.805   -16.805     0.000    -10.46
   CaHCO3+         3.748e-18   3.745e-18   -17.426   -17.427    -0.000     10.41
   (CO2)2          1.084e-18   1.084e-18   -17.965   -17.965     0.000     72.41
Ca            1.000e-08
   Ca+2            1.000e-08   9.966e-09    -8.000    -8.001    -0.001    -18.59
   CaSO4           4.509e-14   4.509e-14   -13.346   -13.346     0.000      9.76
   CaOH+           5.010e-15   5.006e-15   -14.300   -14.301    -0.000     (0)  
   CaCO3           6.914e-17   6.914e-17   -16.160   -16.160     0.000    -14.51
   CaHCO3+         3.748e-18   3.745e-18   -17.426   -17.427    -0.000     10.41
   CaHSO4+         9.667e-20   9.659e-20   -19.015   -19.015    -0.000     (0)  
Cl            1.000e-08
   Cl-             1.000e-08   9.992e-09    -8.000    -8.000    -0.000     17.95
   HCl             9.012e-16   9.012e-16   -15.045   -15.045     0.000     22.10
H(0)          3.922e-15
   H2              1.961e-15   1.961e-15   -14.707   -14.707     0.000     16.96
K             1.000e-08
   K+              1.000e-08   9.992e-09    -8.000    -8.000    -0.000      9.71
   KSO4-           1.976e-15   1.975e-15   -14.704   -14.705    -0.000     14.49
   KHCO3           4.992e-17   4.992e-17   -16.302   -16.302     0.000     23.20
Mg            1.000e-08
   Mg+2            9.998e-09   9.964e-09    -8.000    -8.002    -0.001    -23.46
   MgOH+           2.219e-12   2.217e-12   -11.654   -11.654    -0.000     (0)  
   MgSO4           6.720e-14   6.720e-14   -13.173   -13.173     0.000      1.73
   MgHCO3+         1.015e-15   1.014e-15   -14.994   -14.994    -0.000      5.84
   MgCO3           2.423e-17   2.423e-17   -16.616   -16.616     0.000    -17.09
   Mg(SO4)2-2      1.214e-21   1.210e-21   -20.916   -20.917    -0.001     30.62
Na            1.000e-08
   Na+             1.000e-08   9.992e-09    -8.000    -8.000    -0.000     -0.28
   NaSO4-          1.325e-15   1.324e-15   -14.878   -14.878    -0.000     15.86
   NaHCO3          5.044e-17   5.044e-17   -16.297   -16.297     0.000     19.54
   Na2SO4          1.626e-25   1.626e-25   -24.789   -24.789     0.000     35.84
O(0)          0.000e+00
   O2              0.000e+00   0.000e+00   -52.101   -52.101     0.000     32.49
S(-2)         9.079e-32
   H2S             5.195e-32   5.195e-32   -31.284   -31.284     0.000     42.54
   HS-             3.883e-32   3.880e-32   -31.411   -31.411    -0.000     21.02
   S-2             1.394e-37   1.389e-37   -36.856   -36.857    -0.001     (0)  
   (H2S)2          0.000e+00   0.000e+00   -63.542   -63.542     0.000     27.92
S(6)          1.000e-08
   SO4-2           9.999e-09   9.965e-09    -8.000    -8.002    -0.001     15.89
   HSO4-           8.068e-13   8.061e-13   -12.093   -12.094    -0.000     41.35
   MgSO4           6.720e-14   6.720e-14   -13.173   -13.173     0.000      1.73
   CaSO4           4.509e-14   4.509e-14   -13.346   -13.346     0.000      9.76
   SrSO4           2.866e-14   2.866e-14   -13.543   -13.543     0.000     25.15
   KSO4-           1.976e-15   1.975e-15   -14.704   -14.705    -0.000     14.49
   NaSO4-          1.325e-15   1.324e-15   -14.878   -14.878    -0.000     15.86
   CaHSO4+         9.667e-20   9.659e-20   -19.015   -19.015    -0.000     (0)  
   Mg(SO4)2-2      1.214e-21   1.210e-21   -20.916   -20.917    -0.001     30.62
   Na2SO4          1.626e-25   1.626e-25   -24.789   -24.789     0.000     35.84
Sr            1.000e-08
   Sr+2            1.000e-08   9.966e-09    -8.000    -8.001    -0.001    -18.95
   SrSO4           2.866e-14   2.866e-14   -13.543   -13.543     0.000     25.15
   SrHCO3+         3.587e-15   3.584e-15   -14.445   -14.446    -0.000     (0)  
   SrOH+           1.548e-15   1.547e-15   -14.810   -14.811    -0.000     (0)  
   SrCO3           2.759e-17   2.759e-17   -16.559   -16.559     0.000    -14.02

------------------------------Saturation indices-------------------------------

  Phase               SI** log IAP   log K(335 K,   1 atm)

  Anhydrite       -11.06    -16.00   -4.95  CaSO4
  Aragonite       -11.18    -19.85   -8.67  CaCO3
  Arcanite        -22.45    -24.00   -1.55  K2SO4
  Barite           -6.40    -16.00   -9.61  BaSO4
  Calcite         -11.01    -19.85   -8.83  CaCO3
  Celestite        -9.12    -16.00   -6.88  SrSO4
  CH4(g)          -31.39    -34.39   -3.00  CH4
  CO2(g)           -6.57     -8.37   -1.80  CO2
  Dolomite        -21.65    -39.69  -18.04  CaMg(CO3)2
  Epsomite        -14.50    -16.00   -1.51  MgSO4:7H2O
  Gypsum          -11.19    -16.00   -4.81  CaSO4:2H2O
  H2(g)           -11.58    -14.71   -3.13  H2
  H2O(g)           -0.66     -0.00    0.66  H2O
  H2S(g)          -29.97    -37.89   -7.92  H2S
  Halite          -17.60    -16.00    1.60  NaCl
  Hexahydrite     -14.49    -16.00   -1.51  MgSO4:6H2O
  Kieserite       -14.69    -16.00   -1.31  MgSO4:H2O
  Mirabilite      -26.24    -24.00    2.24  Na2SO4:10H2O
  O2(g)           -49.03    -52.10   -3.07  O2
  Strontianite    -10.38    -19.85   -9.47  SrCO3
  Sulfur          -23.97    -19.87    4.10  S
  Sylvite         -17.07    -16.00    1.07  KCl
  Thenardite      -24.10    -24.00    0.09  Na2SO4
  Witherite       -11.16    -19.85   -8.69  BaCO3

**For a gas, SI = log10(fugacity). Fugacity = pressure * phi / 1 atm.
  For ideal gases, phi = 1.

Reaction step 7.

Using solution 1.	
Using temperature 1.	

-----------------------------Solution composition------------------------------

	Elements           Molality       Moles

	Ba                1.000e-08   1.000e-08
	C                 1.075e-08   1.075e-08
	Ca                1.000e-08   1.000e-08
	Cl                1.000e-08   1.000e-08
	K                 1.000e-08   1.000e-08
	Mg                1.000e-08   1.000e-08
	Na                1.000e-08   1.000e-08
	S                 1.000e-08   1.000e-08
	Sr                1.000e-08   1.000e-08

----------------------------Description of solution----------------------------

                                       pH  =   6.346      Charge balance
                                       pe  =  -0.660      Adjusted to redox equilibrium
      Specific Conductance (µS/cm,  75°C)  = 0
                          Density (g/cm³)  =   0.97484
                               Volume (L)  =   1.02581
                        Viscosity (mPa s)  =   0.37741
                        Activity of water  =   1.000
                 Ionic strength (mol/kgw)  =   5.712e-07
                       Mass of water (kg)  =   1.000e+00
                 Total alkalinity (eq/kg)  =   1.000e-08
                       Total CO2 (mol/kg)  =   1.075e-08
                         Temperature (°C)  =  75.00
                  Electrical balance (eq)  =   6.000e-08
 Percent error, 100*(Cat-|An|)/(Cat+|An|)  =   5.76
                               Iterations  =  13
                                  Total H  = 1.110124e+02
                                  Total O  = 5.550622e+01

----------------------------Distribution of species----------------------------

                                               Log       Log       Log    mole V
   Species          Molality    Activity  Molality  Activity     Gamma   cm³/mol

   OH-             4.557e-07   4.553e-07    -6.341    -6.342    -0.000     -4.48
   H+              4.513e-07   4.508e-07    -6.346    -6.346    -0.000      0.00
   H2O             5.551e+01   1.000e+00     1.744    -0.000     0.000     18.48
Ba            1.000e-08
   Ba+2            1.000e-08   9.961e-09    -8.000    -8.002    -0.002    -12.14
   BaHCO3+         2.546e-15   2.543e-15   -14.594   -14.595    -0.000     (0)  
   BaOH+           7.494e-16   7.487e-16   -15.125   -15.126    -0.000     (0)  
   BaCO3           1.289e-17   1.289e-17   -16.890   -16.890     0.000    -10.41
C(-4)         2.673e-36
   CH4             2.673e-36   2.673e-36   -35.573   -35.573     0.000     39.08
C(4)          1.075e-08
   HCO3-           5.526e-09   5.521e-09    -8.258    -8.258    -0.000     25.32
   CO2             5.224e-09   5.224e-09    -8.282    -8.282     0.000     37.35
   CO3-2           9.214e-13   9.178e-13   -12.036   -12.037    -0.002     -5.28
   SrHCO3+         4.663e-15   4.658e-15   -14.331   -14.332    -0.000     (0)  
   BaHCO3+         2.546e-15   2.543e-15   -14.594   -14.595    -0.000     (0)  
   MgHCO3+         9.892e-16   9.882e-16   -15.005   -15.005    -0.000      5.77
   CaCO3           6.592e-17   6.592e-17   -16.181   -16.181     0.000    -14.48
   NaHCO3          5.024e-17   5.024e-17   -16.299   -16.299     0.000     19.89
   KHCO3           4.937e-17   4.937e-17   -16.307   -16.307     0.000     23.54
   SrCO3           2.555e-17   2.555e-17   -16.593   -16.593     0.000    -13.99
   MgCO3           1.879e-17   1.879e-17   -16.726   -16.726     0.000    -17.09
   CaHCO3+         1.550e-17   1.548e-17   -16.810   -16.810    -0.000     10.49
   BaCO3           1.289e-17   1.289e-17   -16.890   -16.890     0.000    -10.41
   (CO2)2          2.053e-18   2.053e-18   -17.688   -17.688     0.000     73.87
Ca            1.000e-08
   Ca+2            1.000e-08   9.961e-09    -8.000    -8.002    -0.002    -18.95
   CaSO4           6.528e-14   6.528e-14   -13.185   -13.185     0.000     10.26
   CaOH+           3.670e-15   3.667e-15   -14.435   -14.436    -0.000     (0)  
   CaCO3           6.592e-17   6.592e-17   -16.181   -16.181     0.000    -14.48
   CaHCO3+         1.550e-17   1.548e-17   -16.810   -16.810    -0.000     10.49
   CaHSO4+         1.860e-19   1.859e-19   -18.730   -18.731    -0.000     (0)  
Cl            1.000e-08
   Cl-             1.000e-08   9.990e-09    -8.000    -8.000    -0.000     17.52
   HCl             1.138e-15   1.138e-15   -14.944   -14.944     0.000     22.46
H(0)          3.922e-15
   H2              1.961e-15   1.961e-15   -14.707   -14.707     0.000     17.43
K             1.000e-08
   K+              1.000e-08   9.990e-09    -8.000    -8.000    -0.000      9.83
   KSO4-           2.249e-15   2.247e-15   -14.648   -14.648    -0.000     13.52
   KHCO3           4.937e-17   4.937e-17   -16.307   -16.307     0.000     23.54
Mg            1.000e-08
   Mg+2            9.996e-09   9.957e-09    -8.000    -8.002    -0.002    -24.07
   MgOH+           3.835e-12   3.832e-12   -11.416   -11.417    -0.000     (0)  
   MgSO4           9.160e-14   9.160e-14   -13.038   -13.038     0.000      2.17
   MgHCO3+         9.892e-16   9.882e-16   -15.005   -15.005    -0.000      5.77
   MgCO3           1.879e-17   1.879e-17   -16.726   -16.726     0.000    -17.09
   Mg(SO4)2-2      1.399e-21   1.394e-21   -20.854   -20.856    -0.002     31.81
Na            1.000e-08
   Na+             1.000e-08   9.990e-09    -8.000    -8.000    -0.000     -0.06
   NaSO4-          1.518e-15   1.517e-15   -14.819   -14.819    -0.000     15.11
   NaHCO3          5.024e-17   5.024e-17   -16.299   -16.299     0.000     19.89
   Na2SO4          4.486e-25   4.486e-25   -24.348   -24.348     0.000     33.43
O(0)          0.000e+00
   O2              0.000e+00   0.000e+00   -49.119   -49.119     0.000     32.99
S(-2)         7.950e-33
   H2S             4.912e-33   4.912e-33   -32.309   -32.309     0.000     43.89
   HS-             3.038e-33   3.035e-33   -32.517   -32.518    -0.000     20.77
   S-2             1.533e-38   1.527e-38   -37.814   -37.816    -0.002     (0)  
   (H2S)2          0.000e+00   0.000e+00   -65.528   -65.528     0.000     26.89
S(6)          1.000e-08
   SO4-2           9.998e-09   9.959e-09    -8.000    -8.002    -0.002     15.17
   HSO4-           1.554e-12   1.552e-12   -11.809   -11.809    -0.000     41.29
   MgSO4           9.160e-14   9.160e-14   -13.038   -13.038     0.000      2.17
   CaSO4           6.528e-14   6.528e-14   -13.185   -13.185     0.000     10.26
   SrSO4           3.202e-14   3.202e-14   -13.495   -13.495     0.000     25.33
   KSO4-           2.249e-15   2.247e-15   -14.648   -14.648    -0.000     13.52
   NaSO4-          1.518e-15   1.517e-15   -14.819   -14.819    -0.000     15.11
   CaHSO4+         1.860e-19   1.859e-19   -18.730   -18.731    -0.000     (0)  
   Mg(SO4)2-2      1.399e-21   1.394e-21   -20.854   -20.856    -0.002     31.81
   Na2SO4          4.486e-25   4.486e-25   -24.348   -24.348     0.000     33.43
Sr            1.000e-08
   Sr+2            1.000e-08   9.961e-09    -8.000    -8.002    -0.002    -19.31
   SrSO4           3.202e-14   3.202e-14   -13.495   -13.495     0.000     25.33
   SrHCO3+         4.663e-15   4.658e-15   -14.331   -14.332    -0.000     (0)  
   SrOH+           1.134e-15   1.133e-15   -14.945   -14.946    -0.000     (0)  
   SrCO3           2.555e-17   2.555e-17   -16.593   -16.593     0.000    -13.99

------------------------------Saturation indices-------------------------------

  Phase               SI** log IAP   log K(348 K,   1 atm)

  Anhydrite       -10.83    -16.00   -5.17  CaSO4
  Aragonite       -11.23    -20.04   -8.81  CaCO3
  Arcanite        -22.50    -24.00   -1.50  K2SO4
  Barite           -6.43    -16.00   -9.57  BaSO4
  Calcite         -11.04    -20.04   -9.00  CaCO3
  Celestite        -9.04    -16.00   -6.97  SrSO4
  CH4(g)          -32.56    -35.57   -3.01  CH4
  CO2(g)           -6.41     -8.28   -1.87  CO2
  Dolomite        -21.61    -40.08  -18.47  CaMg(CO3)2
  Epsomite        -14.58    -16.00   -1.43  MgSO4:7H2O
  Gypsum          -11.06    -16.00   -4.94  CaSO4:2H2O
  H2(g)           -11.59    -14.71   -3.12  H2
  H2O(g)           -0.42     -0.00    0.42  H2O
  H2S(g)          -30.93    -38.86   -7.94  H2S
  Halite          -17.61    -16.00    1.60  NaCl
  Hexahydrite     -14.51    -16.00   -1.50  MgSO4:6H2O
  Kieserite       -14.51    -16.00   -1.49  MgSO4:H2O
  Mirabilite      -27.31    -24.00    3.31  Na2SO4:10H2O
  O2(g)           -46.02    -49.12   -3.10  O2
  Strontianite    -10.45    -20.04   -9.59  SrCO3
  Sulfur          -24.82    -20.94    3.88  S
  Sylvite         -17.11    -16.00    1.11  KCl
  Thenardite      -23.90    -24.00   -0.11  Na2SO4
  Witherite       -11.25    -20.04   -8.79  BaCO3

**For a gas, SI = log10(fugacity). Fugacity = pressure * phi / 1 atm.
  For ideal gases, phi = 1.

Reaction step 8.

Using solution 1.	
Using temperature 1.	

-----------------------------Solution composition------------------------------

	Elements           Molality       Moles

	Ba                1.000e-08   1.000e-08
	C                 1.075e-08   1.075e-08
	Ca                1.000e-08   1.000e-08
	Cl                1.000e-08   1.000e-08
	K                 1.000e-08   1.000e-08
	Mg                1.000e-08   1.000e-08
	Na                1.000e-08   1.000e-08
	S                 1.000e-08   1.000e-08
	Sr                1.000e-08   1.000e-08

----------------------------Description of solution----------------------------

                                       pH  =   6.227      Charge balance
                                       pe  =  -0.560      Adjusted to redox equilibrium
      Specific Conductance (µS/cm,  88°C)  = 0
                          Density (g/cm³)  =   0.96697
                               Volume (L)  =   1.03416
                        Viscosity (mPa s)  =   0.32338
                        Activity of water  =   1.000
                 Ionic strength (mol/kgw)  =   7.142e-07
                       Mass of water (kg)  =   1.000e+00
                 Total alkalinity (eq/kg)  =   1.000e-08
                       Total CO2 (mol/kg)  =   1.075e-08
                         Temperature (°C)  =  87.50
                  Electrical balance (eq)  =   6.000e-08
 Percent error, 100*(Cat-|An|)/(Cat+|An|)  =   4.52
                               Iterations  =  13
                                  Total H  = 1.110124e+02
                                  Total O  = 5.550622e+01

----------------------------Distribution of species----------------------------

                                               Log       Log       Log    mole V
   Species          Molality    Activity  Molality  Activity     Gamma   cm³/mol

   OH-             5.997e-07   5.990e-07    -6.222    -6.223    -0.000     -5.11
   H+              5.942e-07   5.935e-07    -6.226    -6.227    -0.000      0.00
   H2O             5.551e+01   1.000e+00     1.744    -0.000     0.000     18.63
Ba            1.000e-08
   Ba+2            1.000e-08   9.955e-09    -8.000    -8.002    -0.002    -12.06
   BaHCO3+         3.081e-15   3.077e-15   -14.511   -14.512    -0.000     (0)  
   BaOH+           5.690e-16   5.683e-16   -15.245   -15.245    -0.000     (0)  
   BaCO3           1.012e-17   1.012e-17   -16.995   -16.995     0.000    -10.36
C(-4)         1.894e-37
   CH4             1.894e-37   1.894e-37   -36.723   -36.723     0.000     40.02
C(4)          1.075e-08
   CO2             6.235e-09   6.235e-09    -8.205    -8.205     0.000     38.18
   HCO3-           4.515e-09   4.510e-09    -8.345    -8.346    -0.000     24.87
   CO3-2           5.637e-13   5.612e-13   -12.249   -12.251    -0.002     -6.54
   SrHCO3+         5.841e-15   5.834e-15   -14.234   -14.234    -0.000     (0)  
   BaHCO3+         3.081e-15   3.077e-15   -14.511   -14.512    -0.000     (0)  
   MgHCO3+         9.442e-16   9.431e-16   -15.025   -15.025    -0.000      5.63
   CaCO3           5.878e-17   5.878e-17   -16.231   -16.231     0.000    -14.46
   CaHCO3+         4.876e-17   4.871e-17   -16.312   -16.312    -0.000     10.50
   NaHCO3          4.844e-17   4.844e-17   -16.315   -16.315     0.000     20.18
   KHCO3           4.656e-17   4.656e-17   -16.332   -16.332     0.000     23.82
   SrCO3           2.259e-17   2.259e-17   -16.646   -16.646     0.000    -13.97
   MgCO3           1.391e-17   1.391e-17   -16.857   -16.857     0.000    -17.08
   BaCO3           1.012e-17   1.012e-17   -16.995   -16.995     0.000    -10.36
   (CO2)2          3.316e-18   3.316e-18   -17.479   -17.479     0.000     75.52
Ca            1.000e-08
   Ca+2            1.000e-08   9.955e-09    -8.000    -8.002    -0.002    -19.42
   CaSO4           9.363e-14   9.363e-14   -13.029   -13.029     0.000     10.66
   CaOH+           2.787e-15   2.783e-15   -14.555   -14.555    -0.000     (0)  
   CaCO3           5.878e-17   5.878e-17   -16.231   -16.231     0.000    -14.46
   CaHCO3+         4.876e-17   4.871e-17   -16.312   -16.312    -0.000     10.50
   CaHSO4+         3.502e-19   3.498e-19   -18.456   -18.456    -0.000     (0)  
Cl            1.000e-08
   Cl-             1.000e-08   9.989e-09    -8.000    -8.000    -0.000     16.91
   HCl             1.386e-15   1.386e-15   -14.858   -14.858     0.000     22.77
H(0)          3.922e-15
   H2              1.961e-15   1.961e-15   -14.707   -14.707     0.000     17.88
K             1.000e-08
   K+              1.000e-08   9.989e-09    -8.000    -8.000    -0.000      9.92
   KSO4-           2.601e-15   2.598e-15   -14.585   -14.585    -0.000     12.37
   KHCO3           4.656e-17   4.656e-17   -16.332   -16.332     0.000     23.82
Mg            1.000e-08
   Mg+2            9.993e-09   9.948e-09    -8.000    -8.002    -0.002    -24.76
   MgOH+           6.473e-12   6.465e-12   -11.189   -11.189    -0.000     (0)  
   MgSO4           1.245e-13   1.245e-13   -12.905   -12.905     0.000      2.54
   MgHCO3+         9.442e-16   9.431e-16   -15.025   -15.025    -0.000      5.63
   MgCO3           1.391e-17   1.391e-17   -16.857   -16.857     0.000    -17.08
   Mg(SO4)2-2      1.629e-21   1.622e-21   -20.788   -20.790    -0.002     32.75
Na            1.000e-08
   Na+             1.000e-08   9.989e-09    -8.000    -8.000    -0.000      0.11
   NaSO4-          1.739e-15   1.737e-15   -14.760   -14.760    -0.000     14.10
   NaHCO3          4.844e-17   4.844e-17   -16.315   -16.315     0.000     20.18
   Na2SO4          1.140e-24   1.140e-24   -23.943   -23.943     0.000     31.43
O(0)          0.000e+00
   O2              0.000e+00   0.000e+00   -46.415   -46.415     0.000     33.45
S(-2)         8.371e-34
   H2S             5.576e-34   5.576e-34   -33.254   -33.254     0.000     45.08
   HS-             2.795e-34   2.792e-34   -33.554   -33.554    -0.000     20.35
   S-2             1.965e-39   1.956e-39   -38.707   -38.709    -0.002     (0)  
   (H2S)2          0.000e+00   0.000e+00   -67.372   -67.372     0.000     25.67
S(6)          1.000e-08
   SO4-2           9.997e-09   9.952e-09    -8.000    -8.002    -0.002     13.95
   HSO4-           2.926e-12   2.923e-12   -11.534   -11.534    -0.000     41.06
   MgSO4           1.245e-13   1.245e-13   -12.905   -12.905     0.000      2.54
   CaSO4           9.363e-14   9.363e-14   -13.029   -13.029     0.000     10.66
   SrSO4           3.549e-14   3.549e-14   -13.450   -13.450     0.000     25.47
   KSO4-           2.601e-15   2.598e-15   -14.585   -14.585    -0.000     12.37
   NaSO4-          1.739e-15   1.737e-15   -14.760   -14.760    -0.000     14.10
   CaHSO4+         3.502e-19   3.498e-19   -18.456   -18.456    -0.000     (0)  
   Mg(SO4)2-2      1.629e-21   1.622e-21   -20.788   -20.790    -0.002     32.75
   Na2SO4          1.140e-24   1.140e-24   -23.943   -23.943     0.000     31.43
Sr            1.000e-08
   Sr+2            1.000e-08   9.955e-09    -8.000    -8.002    -0.002    -19.71
   SrSO4           3.549e-14   3.549e-14   -13.450   -13.450     0.000     25.47
   SrHCO3+         5.841e-15   5.834e-15   -14.234   -14.234    -0.000     (0)  
   SrOH+           8.611e-16   8.602e-16   -15.065   -15.065    -0.000     (0)  
   SrCO3           2.259e-17   2.259e-17   -16.646   -16.646     0.000    -13.97

------------------------------Saturation indices-------------------------------

  Phase               SI** log IAP   log K(360 K,   1 atm)

  Anhydrite       -10.60    -16.00   -5.40  CaSO4
  Aragonite       -11.27    -20.25   -8.98  CaCO3
  Arcanite        -22.53    -24.00   -1.47  K2SO4
  Barite           -6.45    -16.00   -9.56  BaSO4
  Calcite         -11.07    -20.25   -9.19  CaCO3
  Celestite        -8.95    -16.00   -7.06  SrSO4
  CH4(g)          -33.71    -36.72   -3.01  CH4
  CO2(g)           -6.27     -8.21   -1.93  CO2
  Dolomite        -21.55    -40.51  -18.95  CaMg(CO3)2
  Epsomite        -14.65    -16.00   -1.35  MgSO4:7H2O
  Gypsum          -10.92    -16.00   -5.09  CaSO4:2H2O
  H2(g)           -11.60    -14.71   -3.11  H2
  H2O(g)           -0.21     -0.00    0.21  H2O
[...]
   Mg(SO4)2-2      5.409e-21   5.357e-21   -20.267   -20.271    -0.004     30.31
   Na2SO4          1.373e-22   1.373e-22   -21.862   -21.862     0.000     22.51
Sr            1.000e-08
   Sr+2            1.000e-08   9.903e-09    -8.000    -8.004    -0.004    -25.52
   SrSO4           6.026e-14   6.026e-14   -13.220   -13.220     0.000     26.04
   SrHCO3+         1.428e-14   1.424e-14   -13.845   -13.846    -0.001     (0)  
   SrOH+           2.664e-16   2.657e-16   -15.575   -15.576    -0.001     (0)  
   SrCO3           4.176e-18   4.176e-18   -17.379   -17.379     0.000    -13.65

------------------------------Saturation indices-------------------------------

  Phase               SI** log IAP   log K(448 K,   9 atm)

  Anhydrite        -8.88    -16.01   -7.14  CaSO4
  Aragonite       -11.49    -22.10  -10.61  CaCO3
  Arcanite        -22.30    -24.01   -1.72  K2SO4
  Barite           -6.02    -16.01   -9.99  BaSO4
  Calcite         -11.25    -22.10  -10.86  CaCO3
  Celestite        -8.19    -16.01   -7.82  SrSO4
  CH4(g)          -79.06    -81.89   -2.83  CH4
  CO2(g)           -5.91     -7.99   -2.08  CO2
  Dolomite        -20.91    -44.22  -23.31  CaMg(CO3)2
  Epsomite        -15.22    -16.02   -0.80  MgSO4:7H2O
  Gypsum           -9.59    -16.01   -6.43  CaSO4:2H2O
  H2(g)           -21.33    -24.19   -2.86  H2
  H2O(g)            0.93     -0.00   -0.93  H2O
  H2S(g)          -74.60    -83.00   -8.39  H2S
  Halite          -17.65    -16.00    1.65  NaCl
  Hexahydrite     -14.67    -16.02   -1.35  MgSO4:6H2O
  Kieserite       -11.78    -16.02   -4.25  MgSO4:H2O
  Mirabilite      -36.82    -24.01   12.81  Na2SO4:10H2O
  O2(g)           -11.89    -14.86   -2.97  O2
  Strontianite    -10.95    -22.10  -11.15  SrCO3
  Sulfur          -58.10    -55.55    2.55  S
  Sylvite         -17.40    -16.00    1.40  KCl
  Thenardite      -22.28    -24.01   -1.73  Na2SO4
  Witherite       -12.32    -22.10   -9.78  BaCO3

**For a gas, SI = log10(fugacity). Fugacity = pressure * phi / 1 atm.
  For ideal gases, phi = 1.

Reaction step 16.

Using solution 1.	
Using temperature 1.	

-----------------------------Solution composition------------------------------

	Elements           Molality       Moles

	Ba                1.000e-08   1.000e-08
	C                 1.075e-08   1.075e-08
	Ca                1.000e-08   1.000e-08
	Cl                1.000e-08   1.000e-08
	K                 1.000e-08   1.000e-08
	Mg                1.000e-08   1.000e-08
	Na                1.000e-08   1.000e-08
	S                 1.000e-08   1.000e-08
	Sr                1.000e-08   1.000e-08

----------------------------Description of solution----------------------------

                                       pH  =   5.684      Charge balance
                                       pe  =   4.651      Adjusted to redox equilibrium
      Specific Conductance (µS/cm, 188°C)  = 2
                          Density (g/cm³)  =   0.87886
                               Volume (L)  =   1.13784
                        Viscosity (mPa s)  =   0.14404
                        Activity of water  =   1.000
                 Ionic strength (mol/kgw)  =   2.195e-06
                       Mass of water (kg)  =   1.000e+00
                 Total alkalinity (eq/kg)  =   1.000e-08
                       Total CO2 (mol/kg)  =   1.075e-08
                         Temperature (°C)  = 187.50
                           Pressure (atm)  = 11.74
                  Electrical balance (eq)  =   6.000e-08
 Percent error, 100*(Cat-|An|)/(Cat+|An|)  =   1.40
                               Iterations  =   8
                                  Total H  = 1.110124e+02
                                  Total O  = 5.550622e+01

----------------------------Distribution of species----------------------------

                                               Log       Log       Log    mole V
   Species          Molality    Activity  Molality  Activity     Gamma   cm³/mol

   OH-             2.085e-06   2.079e-06    -5.681    -5.682    -0.001    -21.55
   H+              2.075e-06   2.070e-06    -5.683    -5.684    -0.001      0.00
   H2O             5.551e+01   1.000e+00     1.744    -0.000     0.000     20.50
Ba            1.000e-08
   Ba+2            1.000e-08   9.895e-09    -8.000    -8.005    -0.005    -14.56
   BaHCO3+         6.284e-15   6.267e-15   -14.202   -14.203    -0.001     (0)  
   BaOH+           1.627e-16   1.623e-16   -15.789   -15.790    -0.001     (0)  
   BaCO3           5.483e-19   5.483e-19   -18.261   -18.261     0.000     -9.89
C(-4)         0.000e+00
   CH4             0.000e+00   0.000e+00   -83.162   -83.162     0.000     54.81
C(4)          1.075e-08
   CO2             1.035e-08   1.035e-08    -7.985    -7.985     0.000     53.01
   HCO3-           3.981e-10   3.970e-10    -9.400    -9.401    -0.001     14.65
   SrHCO3+         1.564e-14   1.560e-14   -13.806   -13.807    -0.001     (0)  
   BaHCO3+         6.284e-15   6.267e-15   -14.202   -14.203    -0.001     (0)  
   CO3-2           4.202e-15   4.157e-15   -14.377   -14.381    -0.005    -40.02
   CaHCO3+         4.453e-16   4.442e-16   -15.351   -15.352    -0.001      8.35
   MgHCO3+         3.995e-16   3.985e-16   -15.398   -15.400    -0.001      0.73
   NaHCO3          1.811e-17   1.811e-17   -16.742   -16.742     0.000     21.14
   KHCO3           9.753e-18   9.753e-18   -17.011   -17.011     0.000     24.95
   SrCO3           3.140e-18   3.140e-18   -17.503   -17.503     0.000    -13.57
   (CO2)2          2.259e-18   2.259e-18   -17.646   -17.646     0.000    105.18
   CaCO3           8.802e-19   8.802e-19   -18.055   -18.055     0.000    -14.08
   BaCO3           5.483e-19   5.483e-19   -18.261   -18.261     0.000     -9.89
   MgCO3           4.573e-19   4.573e-19   -18.340   -18.340     0.000    -16.75
Ca            1.000e-08
   Ca+2            9.999e-09   9.893e-09    -8.000    -8.005    -0.005    -29.78
   CaSO4           1.265e-12   1.265e-12   -11.898   -11.898     0.000     12.31
   CaOH+           7.932e-16   7.911e-16   -15.101   -15.102    -0.001     (0)  
   CaHCO3+         4.453e-16   4.442e-16   -15.351   -15.352    -0.001      8.35
   CaHSO4+         2.744e-17   2.737e-17   -16.562   -16.563    -0.001     (0)  
   CaCO3           8.802e-19   8.802e-19   -18.055   -18.055     0.000    -14.08
Cl            1.000e-08
   Cl-             1.000e-08   9.974e-09    -8.000    -8.001    -0.001      4.03
   HCl             2.583e-15   2.583e-15   -14.588   -14.588     0.000     24.74
H(0)          1.054e-24
   H2              5.271e-25   5.271e-25   -24.278   -24.278     0.000     22.61
K             1.000e-08
   K+              1.000e-08   9.974e-09    -8.000    -8.001    -0.001      9.06
   KSO4-           1.192e-14   1.189e-14   -13.924   -13.925    -0.001    -10.14
   KHCO3           9.753e-18   9.753e-18   -17.011   -17.011     0.000     24.95
Mg            1.000e-08
   Mg+2            9.773e-09   9.670e-09    -8.010    -8.015    -0.005    -37.98
   MgOH+           2.255e-10   2.249e-10    -9.647    -9.648    -0.001     (0)  
   MgSO4           1.285e-12   1.285e-12   -11.891   -11.891     0.000      5.01
   MgHCO3+         3.995e-16   3.985e-16   -15.398   -15.400    -0.001      0.73
   MgCO3           4.573e-19   4.573e-19   -18.340   -18.340     0.000    -16.75
   Mg(SO4)2-2      6.370e-21   6.303e-21   -20.196   -20.200    -0.005     27.75
Na            1.000e-08
   Na+             1.000e-08   9.974e-09    -8.000    -8.001    -0.001     -1.69
   NaSO4-          4.957e-15   4.944e-15   -14.305   -14.306    -0.001     -9.60
   NaHCO3          1.811e-17   1.811e-17   -16.742   -16.742     0.000     21.14
   Na2SO4          2.239e-22   2.239e-22   -21.650   -21.650     0.000     21.44
O(0)          4.646e-14
   O2              2.323e-14   2.323e-14   -13.634   -13.634     0.000     38.19
S(-2)         0.000e+00
   H2S             0.000e+00   0.000e+00   -77.045   -77.045     0.000     54.11
   HS-             0.000e+00   0.000e+00   -78.293   -78.294    -0.001      8.15
   S-2             0.000e+00   0.000e+00   -82.394   -82.398    -0.005     (0)  
   (H2S)2          0.000e+00   0.000e+00  -155.000  -155.000     0.000      2.39
S(6)          1.000e-08
   SO4-2           9.767e-09   9.664e-09    -8.010    -8.015    -0.005    -13.69
   HSO4-           2.306e-10   2.300e-10    -9.637    -9.638    -0.001     31.56
   MgSO4           1.285e-12   1.285e-12   -11.891   -11.891     0.000      5.01
   CaSO4           1.265e-12   1.265e-12   -11.898   -11.898     0.000     12.31
   SrSO4           6.311e-14   6.311e-14   -13.200   -13.200     0.000     26.10
   KSO4-           1.192e-14   1.189e-14   -13.924   -13.925    -0.001    -10.14
   NaSO4-          4.957e-15   4.944e-15   -14.305   -14.306    -0.001     -9.60
   CaHSO4+         2.744e-17   2.737e-17   -16.562   -16.563    -0.001     (0)  
   Mg(SO4)2-2      6.370e-21   6.303e-21   -20.196   -20.200    -0.005     27.75
   Na2SO4          2.239e-22   2.239e-22   -21.650   -21.650     0.000     21.44
Sr            1.000e-08
   Sr+2            1.000e-08   9.895e-09    -8.000    -8.005    -0.005    -27.15
   SrSO4           6.311e-14   6.311e-14   -13.200   -13.200     0.000     26.10
   SrHCO3+         1.564e-14   1.560e-14   -13.806   -13.807    -0.001     (0)  
   SrOH+           2.453e-16   2.447e-16   -15.610   -15.611    -0.001     (0)  
   SrCO3           3.140e-18   3.140e-18   -17.503   -17.503     0.000    -13.57

------------------------------Saturation indices-------------------------------

  Phase               SI** log IAP   log K(460 K,  12 atm)

  Anhydrite        -8.62    -16.02   -7.39  CaSO4
  Aragonite       -11.48    -22.39  -10.91  CaCO3
  Arcanite        -22.21    -24.02   -1.80  K2SO4
  Barite           -5.91    -16.02  -10.11  BaSO4
  Calcite         -11.25    -22.39  -11.14  CaCO3
  Celestite        -8.07    -16.02   -7.95  SrSO4
  CH4(g)          -80.37    -83.16   -2.79  CH4
  CO2(g)           -5.91     -7.98   -2.07  CO2
  Dolomite        -20.75    -44.78  -24.03  CaMg(CO3)2
  Epsomite        -15.31    -16.03   -0.72  MgSO4:7H2O
  Gypsum           -9.37    -16.02   -6.65  CaSO4:2H2O
  H2(g)           -21.47    -24.28   -2.81  H2
  H2O(g)            1.04     -0.00   -1.04  H2O
  H2S(g)          -75.50    -83.98   -8.48  H2S
  Halite          -17.66    -16.00    1.66  NaCl
  Hexahydrite     -14.69    -16.03   -1.33  MgSO4:6H2O
  Kieserite       -11.33    -16.03   -4.70  MgSO4:H2O
  Mirabilite      -38.10    -24.02   14.08  Na2SO4:10H2O
  O2(g)           -10.71    -13.63   -2.92  O2
  Strontianite    -11.00    -22.39  -11.38  SrCO3
  Sulfur          -58.79    -56.37    2.42  S
  Sylvite         -17.43    -16.00    1.43  KCl
  Thenardite      -22.09    -24.02   -1.93  Na2SO4
  Witherite       -12.51    -22.39   -9.88  BaCO3

**For a gas, SI = log10(fugacity). Fugacity = pressure * phi / 1 atm.
  For ideal gases, phi = 1.

Reaction step 17.

Using solution 1.	
Using temperature 1.	

-----------------------------Solution composition------------------------------

	Elements           Molality       Moles

	Ba                1.000e-08   1.000e-08
	C                 1.075e-08   1.075e-08
	Ca                1.000e-08   1.000e-08
	Cl                1.000e-08   1.000e-08
	K                 1.000e-08   1.000e-08
	Mg                1.000e-08   1.000e-08
	Na                1.000e-08   1.000e-08
	S                 1.000e-08   1.000e-08
	Sr                1.000e-08   1.000e-08

----------------------------Description of solution----------------------------

                                       pH  =   5.657      Charge balance
                                       pe  =   4.679      Adjusted to redox equilibrium
      Specific Conductance (µS/cm, 200°C)  = 2
                          Density (g/cm³)  =   0.86467
                               Volume (L)  =   1.15651
                        Viscosity (mPa s)  =   0.13459
                        Activity of water  =   1.000
                 Ionic strength (mol/kgw)  =   2.330e-06
                       Mass of water (kg)  =   1.000e+00
                 Total alkalinity (eq/kg)  =   1.000e-08
                       Total CO2 (mol/kg)  =   1.075e-08
                         Temperature (°C)  = 200.00
                           Pressure (atm)  = 15.38
                  Electrical balance (eq)  =   6.000e-08
 Percent error, 100*(Cat-|An|)/(Cat+|An|)  =   1.32
                               Iterations  =   8
                                  Total H  = 1.110124e+02
                                  Total O  = 5.550622e+01

----------------------------Distribution of species----------------------------

                                               Log       Log       Log    mole V
   Species          Molality    Activity  Molality  Activity     Gamma   cm³/mol

   OH-             2.221e-06   2.214e-06    -5.654    -5.655    -0.001    -26.31
   H+              2.211e-06   2.205e-06    -5.655    -5.657    -0.001      0.00
   H2O             5.551e+01   1.000e+00     1.744    -0.000     0.000     20.84
Ba            1.000e-08
   Ba+2            1.000e-08   9.887e-09    -8.000    -8.005    -0.005    -15.48
   BaHCO3+         6.668e-15   6.649e-15   -14.176   -14.177    -0.001     (0)  
   BaOH+           1.527e-16   1.523e-16   -15.816   -15.817    -0.001     (0)  
   BaCO3           3.672e-19   3.672e-19   -18.435   -18.435     0.000     -9.78
C(-4)         0.000e+00
   CH4             0.000e+00   0.000e+00   -84.165   -84.165     0.000     58.68
C(4)          1.075e-08
   CO2             1.047e-08   1.047e-08    -7.980    -7.980     0.000     57.02
   HCO3-           2.857e-10   2.849e-10    -9.544    -9.545    -0.001     11.51
   SrHCO3+         1.716e-14   1.711e-14   -13.766   -13.767    -0.001     (0)  
   BaHCO3+         6.668e-15   6.649e-15   -14.176   -14.177    -0.001     (0)  
   CO3-2           2.210e-15   2.185e-15   -14.656   -14.661    -0.005    -49.72
   MgHCO3+         3.535e-16   3.525e-16   -15.452   -15.453    -0.001     -0.74
   CaHCO3+         3.245e-16   3.236e-16   -15.489   -15.490    -0.001      7.62
   NaHCO3          1.571e-17   1.571e-17   -16.804   -16.804     0.000     21.15
   KHCO3           7.589e-18   7.589e-18   -17.120   -17.120     0.000     25.01
   SrCO3           2.364e-18   2.364e-18   -17.626   -17.626     0.000    -13.47
   (CO2)2          1.555e-18   1.555e-18   -17.808   -17.808     0.000    113.20
   BaCO3           3.672e-19   3.672e-19   -18.435   -18.435     0.000     -9.78
   CaCO3           3.388e-19   3.388e-19   -18.470   -18.470     0.000    -13.98
   MgCO3           2.849e-19   2.849e-19   -18.545   -18.545     0.000    -16.66
Ca            1.000e-08
   Ca+2            9.998e-09   9.885e-09    -8.000    -8.005    -0.005    -32.84
   CaSO4           1.683e-12   1.683e-12   -11.774   -11.774     0.000     12.42
   CaOH+           7.430e-16   7.408e-16   -15.129   -15.130    -0.001     (0)  
   CaHCO3+         3.245e-16   3.236e-16   -15.489   -15.490    -0.001      7.62
   CaHSO4+         4.320e-17   4.308e-17   -16.364   -16.366    -0.001     (0)  
   CaCO3           3.388e-19   3.388e-19   -18.470   -18.470     0.000    -13.98
Cl            1.000e-08
   Cl-             1.000e-08   9.972e-09    -8.000    -8.001    -0.001      0.39
   HCl             2.537e-15   2.537e-15   -14.596   -14.596     0.000     25.06
H(0)          9.970e-25
   H2              4.985e-25   4.985e-25   -24.302   -24.302     0.000     23.69
K             1.000e-08
   K+              1.000e-08   9.972e-09    -8.000    -8.001    -0.001      8.62
   KSO4-           1.472e-14   1.468e-14   -13.832   -13.833    -0.001    -16.34
   KHCO3           7.589e-18   7.589e-18   -17.120   -17.120     0.000     25.01
Mg            1.000e-08
   Mg+2            9.668e-09   9.558e-09    -8.015    -8.020    -0.005    -41.84
   MgOH+           3.308e-10   3.298e-10    -9.480    -9.482    -0.001     (0)  
   MgSO4           1.667e-12   1.667e-12   -11.778   -11.778     0.000      5.42
   MgHCO3+         3.535e-16   3.525e-16   -15.452   -15.453    -0.001     -0.74
   MgCO3           2.849e-19   2.849e-19   -18.545   -18.545     0.000    -16.66
   Mg(SO4)2-2      7.396e-21   7.312e-21   -20.131   -20.136    -0.005     24.18
Na            1.000e-08
   Na+             1.000e-08   9.972e-09    -8.000    -8.001    -0.001     -2.45
   NaSO4-          5.577e-15   5.561e-15   -14.254   -14.255    -0.001    -16.36
   NaHCO3          1.571e-17   1.571e-17   -16.804   -16.804     0.000     21.15
   Na2SO4          3.498e-22   3.498e-22   -21.456   -21.456     0.000     20.31
O(0)          4.073e-13
   O2              2.036e-13   2.036e-13   -12.691   -12.691     0.000     39.26
S(-2)         0.000e+00
   H2S             0.000e+00   0.000e+00   -77.652   -77.652     0.000     55.80
   HS-             0.000e+00   0.000e+00   -79.035   -79.036    -0.001      4.57
   S-2             0.000e+00   0.000e+00   -83.011   -83.016    -0.005     (0)  
   (H2S)2          0.000e+00   0.000e+00  -156.256  -156.256     0.000     -3.98
S(6)          1.000e-08
   SO4-2           9.632e-09   9.523e-09    -8.016    -8.021    -0.005    -21.49
   HSO4-           3.641e-10   3.631e-10    -9.439    -9.440    -0.001     28.66
   CaSO4           1.683e-12   1.683e-12   -11.774   -11.774     0.000     12.42
   MgSO4           1.667e-12   1.667e-12   -11.778   -11.778     0.000      5.42
   SrSO4           6.537e-14   6.537e-14   -13.185   -13.185     0.000     26.14
   KSO4-           1.472e-14   1.468e-14   -13.832   -13.833    -0.001    -16.34
   NaSO4-          5.577e-15   5.561e-15   -14.254   -14.255    -0.001    -16.36
   CaHSO4+         4.320e-17   4.308e-17   -16.364   -16.366    -0.001     (0)  
   Mg(SO4)2-2      7.396e-21   7.312e-21   -20.131   -20.136    -0.005     24.18
   Na2SO4          3.498e-22   3.498e-22   -21.456   -21.456     0.000     20.31
Sr            1.000e-08
   Sr+2            1.000e-08   9.887e-09    -8.000    -8.005    -0.005    -29.17
   SrSO4           6.537e-14   6.537e-14   -13.185   -13.185     0.000     26.14
   SrHCO3+         1.716e-14   1.711e-14   -13.766   -13.767    -0.001     (0)  
   SrOH+           2.299e-16   2.293e-16   -15.638   -15.640    -0.001     (0)  
   SrCO3           2.364e-18   2.364e-18   -17.626   -17.626     0.000    -13.47

------------------------------Saturation indices-------------------------------

  Phase               SI** log IAP   log K(473 K,  15 atm)

  Anhydrite        -8.37    -16.03   -7.65  CaSO4
  Aragonite       -11.46    -22.67  -11.21  CaCO3
  Arcanite        -22.12    -24.02   -1.90  K2SO4
  Barite           -5.78    -16.03  -10.24  BaSO4
  Calcite         -11.24    -22.67  -11.43  CaCO3
  Celestite        -7.94    -16.03   -8.08  SrSO4
  CH4(g)          -81.41    -84.16   -2.75  CH4
  CO2(g)           -5.92     -7.98   -2.06  CO2
  Dolomite        -20.57    -45.35  -24.77  CaMg(CO3)2
  Epsomite        -15.40    -16.04   -0.64  MgSO4:7H2O
  Gypsum           -9.15    -16.03   -6.87  CaSO4:2H2O
  H2(g)           -21.54    -24.30   -2.76  H2
  H2O(g)            1.16     -0.00   -1.16  H2O
  H2S(g)          -76.12    -84.69   -8.57  H2S
  Halite          -17.67    -16.00    1.66  NaCl
  Hexahydrite     -14.73    -16.04   -1.31  MgSO4:6H2O
  Kieserite       -10.88    -16.04   -5.16  MgSO4:H2O
  Mirabilite      -39.40    -24.02   15.38  Na2SO4:10H2O
  O2(g)            -9.82    -12.69   -2.87  O2
  Strontianite    -11.05    -22.67  -11.62  SrCO3
  Sulfur          -59.28    -56.98    2.30  S
  Sylvite         -17.46    -16.00    1.46  KCl
  Thenardite      -21.91    -24.02   -2.12  Na2SO4
  Witherite       -12.71    -22.67   -9.96  BaCO3

**For a gas, SI = log10(fugacity). Fugacity = pressure * phi / 1 atm.
  For ideal gases, phi = 1.

------------------
End of simulation.
------------------

------------------------------------
Reading input data for simulation 4.
------------------------------------

