WARNING: Database file from DATABASE keyword is used; command line argument ignored.
   Input file: Vm_BaCl2_sol
  Output file: Vm_BaCl2_sol.out
Database file: ../database/phreeqc.dat

------------------
Reading data base.
------------------

	SOLUTION_MASTER_SPECIES
	SOLUTION_SPECIES
	PHASES
	GAS_BINARY_PARAMETERS
	EXCHANGE_MASTER_SPECIES
	EXCHANGE_SPECIES
	SURFACE_MASTER_SPECIES
	SURFACE_SPECIES
	MEAN_GAMMAS
	RATES
	END
------------------------------------
Reading input data for simulation 1.
------------------------------------

	DATABASE ../database/phreeqc.dat
	SELECTED_OUTPUT 101
	    file                 Vm_BaCl2_sol_101.sel
	USER_PUNCH 101
	    headings Mu SC
	    start
	10 PUNCH STR_F$(MU, 20, 12)
	20 PUNCH STR_F$(SC, 20, 10)
	    end
	SOLUTION 1
	 pH 7 charge
	END
-------------------------------------------
Beginning of initial solution calculations.
-------------------------------------------

Initial solution 1.	

-----------------------------Solution composition------------------------------

	Elements           Molality       Moles

	Pure water     

----------------------------Description of solution----------------------------

                                       pH  =   6.997      Charge balance
                                       pe  =   4.000    
      Specific Conductance (µS/cm,  25°C)  = 0
                          Density (g/cm³)  =   0.99704
                               Volume (L)  =   1.00297
                        Viscosity (mPa s)  =   0.89002
                        Activity of water  =   1.000
                 Ionic strength (mol/kgw)  =   1.006e-07
                       Mass of water (kg)  =   1.000e+00
                 Total alkalinity (eq/kg)  =   3.040e-17
                         Temperature (°C)  =  25.00
                  Electrical balance (eq)  =  -3.040e-17
 Percent error, 100*(Cat-|An|)/(Cat+|An|)  =  -0.00
                               Iterations  =   2
                                  Total H  = 1.110124e+02
                                  Total O  = 5.550622e+01

----------------------------Distribution of species----------------------------

                                               Log       Log       Log    mole V
   Species          Molality    Activity  Molality  Activity     Gamma   cm³/mol

   OH-             1.006e-07   1.006e-07    -6.997    -6.997    -0.000     -4.14
   H+              1.006e-07   1.006e-07    -6.997    -6.997    -0.000      0.00
   H2O             5.551e+01   1.000e+00     1.744    -0.000     0.000     18.07
H(0)          1.433e-25
   H2              7.166e-26   7.166e-26   -25.145   -25.145     0.000     14.99
O(0)          0.000e+00
   O2              0.000e+00   0.000e+00   -42.073   -42.073     0.000     30.40

------------------------------Saturation indices-------------------------------

  Phase               SI** log IAP   log K(298 K,   1 atm)

  H2(g)           -22.05    -25.14   -3.10  H2
  H2O(g)           -1.50     -0.00    1.50  H2O
  O2(g)           -39.18    -42.07   -2.89  O2

**For a gas, SI = log10(fugacity). Fugacity = pressure * phi / 1 atm.
  For ideal gases, phi = 1.

------------------
End of simulation.
------------------

------------------------------------
Reading input data for simulation 2.
------------------------------------

	USE solution 1
	REACTION_TEMPERATURE
	 15.000000
	REACTION_PRESSURE
	 1.000000
	REACTION
	 BaCl2 1
	0 0.009300 0.029500 0.050000 0.050100 0.072600 0.099800 0.100000 0.149400 0.200000 0.300400 0.406400 0.500000 0.587800 0.700000 0.992100 1.000000 1.200000 1.224300 1.500000 1.585800
	USER_GRAPH
	 -headings 15.oC
	-axis_titles "BaCl2 / (mol/kg H2O)" "BaCl2 molar volume / (cm3/mol)"
	10 data 0, 20.741910, 22.782720, 23.271951, 23.109905, 23.619726, 23.751890, 25.234145, 24.332228, 24.681781, 25.436091, 25.958348, 26.972194, 26.983782, 28.857845, 28.547434, 29.563096, 30.198633, 29.441347, 31.763106, 30.622114,
	20 dim d(21)
	30 read d(1), d(2), d(3), d(4), d(5), d(6), d(7), d(8), d(9), d(10), d(11), d(12), d(13), d(14), d(15), d(16), d(17), d(18), d(19), d(20), d(21), 
	40 if step_no = 1 then put(rho, 10)
	50 if step_no > 1 then Vmol = (1e3 + tot("Ba") * 208.246) / (tot("Ba") * rho) - 1e3 / (tot("Ba") * get(10))
	60 if step_no = 1 then dif = 0 else dif = Vmol - d(step_no)
	62 if step_no = 1 then goto 90
	70 plot_xy tot("Ba"), d(step_no), line_w = 0, color = Yellow #aph_x tot("Ba") # dif, str$(tc), str$(pressure), str$(step_no + get(1))
	80 plot_xy tot("Ba"), Vmol, symbol = None, color = Yellow #step_no = 264 then put(step_no + get(1), 1)
	90 end
	END
-----------------------------------------
Beginning of batch-reaction calculations.
-----------------------------------------

Reaction step 1.

Using solution 1.	
Using temperature 1.	
Using pressure 1.	
Using reaction 1.	

Reaction 1.	

	  0.000e+00 moles of the following reaction have been added:

	                 Relative
	Reactant            moles

	BaCl2                1.00000

	                 Relative
	Element             moles
	Ba                   1.00000
	Cl                   2.00000

-----------------------------Solution composition------------------------------

	Elements           Molality       Moles

	Pure water     

----------------------------Description of solution----------------------------

                                       pH  =   7.172      Charge balance
                                       pe  =  -0.315      Adjusted to redox equilibrium
      Specific Conductance (µS/cm,  15°C)  = 0
                          Density (g/cm³)  =   0.99910
                               Volume (L)  =   1.00090
                        Viscosity (mPa s)  =   1.13757
                        Activity of water  =   1.000
                 Ionic strength (mol/kgw)  =   6.737e-08
                       Mass of water (kg)  =   1.000e+00
                 Total alkalinity (eq/kg)  =   9.842e-17
                         Temperature (°C)  =  15.00
                  Electrical balance (eq)  =  -9.842e-17
 Percent error, 100*(Cat-|An|)/(Cat+|An|)  =  -0.00
                               Iterations  =   7
                                  Total H  = 1.110124e+02
                                  Total O  = 5.550622e+01

----------------------------Distribution of species----------------------------

                                               Log       Log       Log    mole V
   Species          Molality    Activity  Molality  Activity     Gamma   cm³/mol

   OH-             6.737e-08   6.735e-08    -7.172    -7.172    -0.000     -4.65
   H+              6.737e-08   6.735e-08    -7.172    -7.172    -0.000      0.00
   H2O             5.551e+01   1.000e+00     1.744    -0.000     0.000     18.03
H(0)          3.042e-17
   H2              1.521e-17   1.521e-17   -16.818   -16.818     0.000     14.15
O(0)          0.000e+00
   O2              0.000e+00   0.000e+00   -62.169   -62.169     0.000     29.51

------------------------------Saturation indices-------------------------------

  Phase               SI** log IAP   log K(288 K,   1 atm)

  H2(g)           -13.74    -16.82   -3.08  H2
  H2O(g)           -1.77     -0.00    1.77  H2O
  O2(g)           -59.36    -62.17   -2.81  O2

**For a gas, SI = log10(fugacity). Fugacity = pressure * phi / 1 atm.
  For ideal gases, phi = 1.

Reaction step 2.

Using solution 1.	
Using temperature 1.	
Using pressure 1.	
Using reaction 1.	

Reaction 1.	

	  9.300e-03 moles of the following reaction have been added:

	                 Relative
	Reactant            moles

	BaCl2                1.00000

	                 Relative
	Element             moles
	Ba                   1.00000
	Cl                   2.00000

-----------------------------Solution composition------------------------------

	Elements           Molality       Moles

	Ba                9.300e-03   9.300e-03
	Cl                1.860e-02   1.860e-02

----------------------------Description of solution----------------------------

                                       pH  =   7.157      Charge balance
                                       pe  =  -0.314      Adjusted to redox equilibrium
      Specific Conductance (µS/cm,  15°C)  = 1839
                          Density (g/cm³)  =   1.00083
                               Volume (L)  =   1.00110
                        Viscosity (mPa s)  =   1.14134
                        Activity of water  =   1.000
                 Ionic strength (mol/kgw)  =   2.790e-02
                       Mass of water (kg)  =   1.000e+00
                 Total alkalinity (eq/kg)  =   3.309e-17
                         Temperature (°C)  =  15.00
                  Electrical balance (eq)  =   6.631e-12
 Percent error, 100*(Cat-|An|)/(Cat+|An|)  =   0.00
                               Iterations  =   8
                                  Total H  = 1.110124e+02
                                  Total O  = 5.550622e+01

----------------------------Distribution of species----------------------------

                                               Log       Log       Log    mole V
   Species          Molality    Activity  Molality  Activity     Gamma   cm³/mol

   H+              7.923e-08   6.961e-08    -7.101    -7.157    -0.056      0.00
   OH-             7.659e-08   6.514e-08    -7.116    -7.186    -0.070     -4.48
   H2O             5.551e+01   9.995e-01     1.744    -0.000     0.000     18.03
Ba            9.300e-03
   Ba+2            9.300e-03   5.351e-03    -2.032    -2.272    -0.240    -13.83
   BaOH+           3.030e-09   2.604e-09    -8.519    -8.584    -0.066     (0)  
Cl            1.860e-02
   Cl-             1.860e-02   1.585e-02    -1.730    -1.800    -0.069     17.79
   HCl             3.935e-10   4.044e-10    -9.405    -9.393     0.012     19.56
H(0)          3.212e-17
   H2              1.606e-17   1.617e-17   -16.794   -16.791     0.003     14.15
O(0)          0.000e+00
   O2              0.000e+00   0.000e+00   -62.226   -62.223     0.003     29.51

------------------------------Saturation indices-------------------------------

  Phase               SI** log IAP   log K(288 K,   1 atm)

  H2(g)           -13.72    -16.79   -3.08  H2
  H2O(g)           -1.77     -0.00    1.77  H2O
  O2(g)           -59.41    -62.22   -2.81  O2

**For a gas, SI = log10(fugacity). Fugacity = pressure * phi / 1 atm.
  For ideal gases, phi = 1.

Reaction step 3.

Using solution 1.	
Using temperature 1.	
Using pressure 1.	
Using reaction 1.	

Reaction 1.	

	  2.950e-02 moles of the following reaction have been added:

	                 Relative
	Reactant            moles

	BaCl2                1.00000

	                 Relative
	Element             moles
	Ba                   1.00000
	Cl                   2.00000

-----------------------------Solution composition------------------------------

	Elements           Molality       Moles

	Ba                2.950e-02   2.950e-02
	Cl                5.900e-02   5.900e-02

----------------------------Description of solution----------------------------

                                       pH  =   7.139      Charge balance
                                       pe  =  -0.291      Adjusted to redox equilibrium
      Specific Conductance (µS/cm,  15°C)  = 5495
                          Density (g/cm³)  =   1.00457
                               Volume (L)  =   1.00156
                        Viscosity (mPa s)  =   1.14667
                        Activity of water  =   0.998
                 Ionic strength (mol/kgw)  =   8.850e-02
                       Mass of water (kg)  =   1.000e+00
                 Total alkalinity (eq/kg)  =   4.730e-17
                         Temperature (°C)  =  15.00
                  Electrical balance (eq)  =   1.286e-10
 Percent error, 100*(Cat-|An|)/(Cat+|An|)  =   0.00
                               Iterations  =  11
                                  Total H  = 1.110124e+02
                                  Total O  = 5.550622e+01

----------------------------Distribution of species----------------------------

                                               Log       Log       Log    mole V
   Species          Molality    Activity  Molality  Activity     Gamma   cm³/mol

   H+              8.724e-08   7.263e-08    -7.059    -7.139    -0.080      0.00
   OH-             8.059e-08   6.237e-08    -7.094    -7.205    -0.111     -4.30
   H2O             5.551e+01   9.985e-01     1.744    -0.001     0.000     18.03
Ba            2.950e-02
   Ba+2            2.950e-02   1.323e-02    -1.530    -1.878    -0.348    -13.36
   BaOH+           7.766e-09   6.163e-09    -8.110    -8.210    -0.100     (0)  
Cl            5.900e-02
   Cl-             5.900e-02   4.592e-02    -1.229    -1.338    -0.109     17.91
   HCl             1.121e-09   1.223e-09    -8.950    -8.913     0.038     19.56
H(0)          3.099e-17
   H2              1.549e-17   1.583e-17   -16.810   -16.801     0.009     14.15
O(0)          0.000e+00
   O2              0.000e+00   0.000e+00   -62.214   -62.205     0.009     29.51

------------------------------Saturation indices-------------------------------

  Phase               SI** log IAP   log K(288 K,   1 atm)

  H2(g)           -13.72    -16.80   -3.08  H2
  H2O(g)           -1.77     -0.00    1.77  H2O
  O2(g)           -59.39    -62.21   -2.81  O2

**For a gas, SI = log10(fugacity). Fugacity = pressure * phi / 1 atm.
  For ideal gases, phi = 1.

Reaction step 4.

Using solution 1.	
Using temperature 1.	
Using pressure 1.	
Using reaction 1.	

Reaction 1.	

	  5.000e-02 moles of the following reaction have been added:

	                 Relative
	Reactant            moles

	BaCl2                1.00000

	                 Relative
	Element             moles
	Ba                   1.00000
	Cl                   2.00000

-----------------------------Solution composition------------------------------

	Elements           Molality       Moles

	Ba                5.000e-02   5.000e-02
	Cl                1.000e-01   1.000e-01

----------------------------Description of solution----------------------------

                                       pH  =   7.125      Charge balance
                                       pe  =  -0.318      Adjusted to redox equilibrium
      Specific Conductance (µS/cm,  15°C)  = 9010
                          Density (g/cm³)  =   1.00835
                               Volume (L)  =   1.00205
                        Viscosity (mPa s)  =   1.15164
                        Activity of water  =   0.997
                 Ionic strength (mol/kgw)  =   1.500e-01
                       Mass of water (kg)  =   1.000e+00
                 Total alkalinity (eq/kg)  =   3.640e-17
                         Temperature (°C)  =  15.00
                  Electrical balance (eq)  =   6.260e-15
 Percent error, 100*(Cat-|An|)/(Cat+|An|)  =   0.00
                               Iterations  =   9
                                  Total H  = 1.110124e+02
                                  Total O  = 5.550622e+01

----------------------------Distribution of species----------------------------

                                               Log       Log       Log    mole V
   Species          Molality    Activity  Molality  Activity     Gamma   cm³/mol

   H+              9.236e-08   7.493e-08    -7.035    -7.125    -0.091      0.00
   OH-             8.233e-08   6.039e-08    -7.084    -7.219    -0.135     -4.16
   H2O             5.551e+01   9.974e-01     1.744    -0.001     0.000     18.03
Ba            5.000e-02
   Ba+2            5.000e-02   1.986e-02    -1.301    -1.702    -0.401    -13.07
   BaOH+           1.178e-08   8.958e-09    -7.929    -8.048    -0.119     (0)  
Cl            1.000e-01
   Cl-             1.000e-01   7.403e-02    -1.000    -1.131    -0.131     17.98
   HCl             1.755e-09   2.033e-09    -8.756    -8.692     0.064     19.56
H(0)          3.677e-17
   H2              1.839e-17   1.907e-17   -16.735   -16.720     0.016     14.15
O(0)          0.000e+00
   O2              0.000e+00   0.000e+00   -62.383   -62.368     0.015     29.51

------------------------------Saturation indices-------------------------------

  Phase               SI** log IAP   log K(288 K,   1 atm)

  H2(g)           -13.64    -16.72   -3.08  H2
  H2O(g)           -1.77     -0.00    1.77  H2O
  O2(g)           -59.56    -62.37   -2.81  O2

**For a gas, SI = log10(fugacity). Fugacity = pressure * phi / 1 atm.
  For ideal gases, phi = 1.

Reaction step 5.

Using solution 1.	
Using temperature 1.	
Using pressure 1.	
Using reaction 1.	

Reaction 1.	

	  5.010e-02 moles of the following reaction have been added:

	                 Relative
	Reactant            moles

	BaCl2                1.00000

	                 Relative
	Element             moles
	Ba                   1.00000
	Cl                   2.00000

-----------------------------Solution composition------------------------------

	Elements           Molality       Moles

	Ba                5.010e-02   5.010e-02
	Cl                1.002e-01   1.002e-01

----------------------------Description of solution----------------------------

                                       pH  =   7.125      Charge balance
                                       pe  =  -0.333      Adjusted to redox equilibrium
      Specific Conductance (µS/cm,  15°C)  = 9027
                          Density (g/cm³)  =   1.00837
                               Volume (L)  =   1.00205
                        Viscosity (mPa s)  =   1.15166
                        Activity of water  =   0.997
                 Ionic strength (mol/kgw)  =   1.503e-01
                       Mass of water (kg)  =   1.000e+00
                 Total alkalinity (eq/kg)  =   3.876e-17
                         Temperature (°C)  =  15.00
                  Electrical balance (eq)  =   6.427e-15
 Percent error, 100*(Cat-|An|)/(Cat+|An|)  =   0.00
                               Iterations  =   9
                                  Total H  = 1.110124e+02
                                  Total O  = 5.550622e+01

----------------------------Distribution of species----------------------------

                                               Log       Log       Log    mole V
   Species          Molality    Activity  Molality  Activity     Gamma   cm³/mol

   H+              9.238e-08   7.494e-08    -7.034    -7.125    -0.091      0.00
   OH-             8.234e-08   6.038e-08    -7.084    -7.219    -0.135     -4.16
   H2O             5.551e+01   9.974e-01     1.744    -0.001     0.000     18.03
Ba            5.010e-02
   Ba+2            5.010e-02   1.989e-02    -1.300    -1.701    -0.401    -13.06
   BaOH+           1.180e-08   8.970e-09    -7.928    -8.047    -0.119     (0)  
Cl            1.002e-01
   Cl-             1.002e-01   7.417e-02    -0.999    -1.130    -0.131     17.98
   HCl             1.758e-09   2.037e-09    -8.755    -8.691     0.064     19.56
H(0)          3.933e-17
   H2              1.967e-17   2.039e-17   -16.706   -16.690     0.016     14.15
O(0)          0.000e+00
   O2              0.000e+00   0.000e+00   -62.441   -62.426     0.015     29.51

------------------------------Saturation indices-------------------------------

  Phase               SI** log IAP   log K(288 K,   1 atm)

  H2(g)           -13.61    -16.69   -3.08  H2
  H2O(g)           -1.77     -0.00    1.77  H2O
  O2(g)           -59.61    -62.43   -2.81  O2

**For a gas, SI = log10(fugacity). Fugacity = pressure * phi / 1 atm.
  For ideal gases, phi = 1.

Reaction step 6.

Using solution 1.	
Using temperature 1.	
Using pressure 1.	
Using reaction 1.	

Reaction 1.	

	  7.260e-02 moles of the following reaction have been added:

	                 Relative
	Reactant            moles

	BaCl2                1.00000

	                 Relative
	Element             moles
	Ba                   1.00000
	Cl                   2.00000

-----------------------------Solution composition------------------------------

	Elements           Molality       Moles

	Ba                7.260e-02   7.260e-02
	Cl                1.452e-01   1.452e-01

----------------------------Description of solution----------------------------

                                       pH  =   7.113      Charge balance
                                       pe  =  -0.465      Adjusted to redox equilibrium
      Specific Conductance (µS/cm,  15°C)  = 12743
                          Density (g/cm³)  =   1.01249
                               Volume (L)  =   1.00259
                        Viscosity (mPa s)  =   1.15698
                        Activity of water  =   0.996
                 Ionic strength (mol/kgw)  =   2.178e-01
                       Mass of water (kg)  =   1.000e+00
                 Total alkalinity (eq/kg)  =   4.589e-17
                         Temperature (°C)  =  15.00
                  Electrical balance (eq)  =   1.799e-13
 Percent error, 100*(Cat-|An|)/(Cat+|An|)  =   0.00
                               Iterations  =   9
                                  Total H  = 1.110124e+02
                                  Total O  = 5.550622e+01

----------------------------Distribution of species----------------------------

                                               Log       Log       Log    mole V
   Species          Molality    Activity  Molality  Activity     Gamma   cm³/mol

   H+              9.674e-08   7.708e-08    -7.014    -7.113    -0.099      0.00
   OH-             8.333e-08   5.864e-08    -7.079    -7.232    -0.153     -4.01
   H2O             5.551e+01   9.963e-01     1.744    -0.002     0.000     18.03
Ba            7.260e-02
   Ba+2            7.260e-02   2.651e-02    -1.139    -1.577    -0.438    -12.82
   BaOH+           1.577e-08   1.161e-08    -7.802    -7.935    -0.133     (0)  
Cl            1.452e-01
   Cl-             1.452e-01   1.035e-01    -0.838    -0.985    -0.147     18.05
   HCl             2.362e-09   2.924e-09    -8.627    -8.534     0.093     19.56
H(0)          7.545e-17
   H2              3.772e-17   3.976e-17   -16.423   -16.401     0.023     14.15
O(0)          0.000e+00
   O2              0.000e+00   0.000e+00   -63.029   -63.007     0.022     29.51

------------------------------Saturation indices-------------------------------

  Phase               SI** log IAP   log K(288 K,   1 atm)

  H2(g)           -13.32    -16.40   -3.08  H2
  H2O(g)           -1.77     -0.00    1.77  H2O
  O2(g)           -60.19    -63.01   -2.81  O2

**For a gas, SI = log10(fugacity). Fugacity = pressure * phi / 1 atm.
  For ideal gases, phi = 1.

Reaction step 7.

Using solution 1.	
Using temperature 1.	
Using pressure 1.	
Using reaction 1.	

Reaction 1.	

	  9.980e-02 moles of the following reaction have been added:

	                 Relative
	Reactant            moles

	BaCl2                1.00000

	                 Relative
	Element             moles
	Ba                   1.00000
	Cl                   2.00000

-----------------------------Solution composition------------------------------

	Elements           Molality       Moles

	Ba                9.980e-02   9.980e-02
	Cl                1.996e-01   1.996e-01

----------------------------Description of solution----------------------------

                                       pH  =   7.100      Charge balance
                                       pe  =  -0.248      Adjusted to redox equilibrium
      Specific Conductance (µS/cm,  15°C)  = 17087
                          Density (g/cm³)  =   1.01746
                               Volume (L)  =   1.00326
                        Viscosity (mPa s)  =   1.16335
                        Activity of water  =   0.995
                 Ionic strength (mol/kgw)  =   2.994e-01
                       Mass of water (kg)  =   1.000e+00
                 Total alkalinity (eq/kg)  =   2.830e-17
                         Temperature (°C)  =  15.00
                  Electrical balance (eq)  =   1.352e-12
 Percent error, 100*(Cat-|An|)/(Cat+|An|)  =   0.00
                               Iterations  =   9
                                  Total H  = 1.110124e+02
                                  Total O  = 5.550622e+01

----------------------------Distribution of species----------------------------

                                               Log       Log       Log    mole V
   Species          Molality    Activity  Molality  Activity     Gamma   cm³/mol

   H+              1.011e-07   7.935e-08    -6.995    -7.100    -0.105      0.00
   OH-             8.390e-08   5.688e-08    -7.076    -7.245    -0.169     -3.86
   H2O             5.551e+01   9.949e-01     1.744    -0.002     0.000     18.03
Ba            9.980e-02
   Ba+2            9.980e-02   3.404e-02    -1.001    -1.468    -0.467    -12.57
   BaOH+           2.019e-08   1.446e-08    -7.695    -7.840    -0.145     (0)  
Cl            1.996e-01
   Cl-             1.996e-01   1.377e-01    -0.700    -0.861    -0.161     18.12
   HCl             2.986e-09   4.004e-09    -8.525    -8.397     0.127     19.56
H(0)          2.875e-17
   H2              1.437e-17   1.545e-17   -16.842   -16.811     0.031     14.15
O(0)          0.000e+00
   O2              0.000e+00   0.000e+00   -62.217   -62.187     0.030     29.51

------------------------------Saturation indices-------------------------------

  Phase               SI** log IAP   log K(288 K,   1 atm)

  H2(g)           -13.73    -16.81   -3.08  H2
  H2O(g)           -1.77     -0.00    1.77  H2O
  O2(g)           -59.38    -62.19   -2.81  O2

**For a gas, SI = log10(fugacity). Fugacity = pressure * phi / 1 atm.
  For ideal gases, phi = 1.

Reaction step 8.

Using solution 1.	
Using temperature 1.	
Using pressure 1.	
Using reaction 1.	

Reaction 1.	

	  1.000e-01 moles of the following reaction have been added:

	                 Relative
	Reactant            moles

	BaCl2                1.00000

	                 Relative
	Element             moles
	Ba                   1.00000
	Cl                   2.00000

-----------------------------Solution composition------------------------------

	Elements           Molality       Moles

	Ba                1.000e-01   1.000e-01
	Cl                2.000e-01   2.000e-01

----------------------------Description of solution----------------------------

                                       pH  =   7.100      Charge balance
                                       pe  =  -0.360      Adjusted to redox equilibrium
      Specific Conductance (µS/cm,  15°C)  = 17118
                          Density (g/cm³)  =   1.01750
                               Volume (L)  =   1.00327
                        Viscosity (mPa s)  =   1.16339
                        Activity of water  =   0.995
                 Ionic strength (mol/kgw)  =   3.000e-01
                       Mass of water (kg)  =   1.000e+00
                 Total alkalinity (eq/kg)  =   5.516e-17
                         Temperature (°C)  =  15.00
                  Electrical balance (eq)  =   1.496e-10
 Percent error, 100*(Cat-|An|)/(Cat+|An|)  =   0.00
                               Iterations  =  22
                                  Total H  = 1.110124e+02
                                  Total O  = 5.550622e+01

----------------------------Distribution of species----------------------------

                                               Log       Log       Log    mole V
   Species          Molality    Activity  Molality  Activity     Gamma   cm³/mol

   H+              1.011e-07   7.937e-08    -6.995    -7.100    -0.105      0.00
   OH-             8.390e-08   5.686e-08    -7.076    -7.245    -0.169     -3.86
   H2O             5.551e+01   9.949e-01     1.744    -0.002     0.000     18.03
Ba            1.000e-01
   Ba+2            1.000e-01   3.409e-02    -1.000    -1.467    -0.467    -12.57
   BaOH+           2.022e-08   1.448e-08    -7.694    -7.839    -0.145     (0)  
Cl            2.000e-01
   Cl-             2.000e-01   1.379e-01    -0.699    -0.860    -0.161     18.12
   HCl             2.990e-09   4.012e-09    -8.524    -8.397     0.128     19.56
H(0)          4.824e-17
   H2              2.412e-17   2.594e-17   -16.618   -16.586     0.032     14.15
O(0)          0.000e+00
   O2              0.000e+00   0.000e+00   -62.667   -62.637     0.030     29.51

------------------------------Saturation indices-------------------------------

  Phase               SI** log IAP   log K(288 K,   1 atm)

  H2(g)           -13.51    -16.59   -3.08  H2
  H2O(g)           -1.77     -0.00    1.77  H2O
  O2(g)           -59.83    -62.64   -2.81  O2

**For a gas, SI = log10(fugacity). Fugacity = pressure * phi / 1 atm.
  For ideal gases, phi = 1.

Reaction step 9.

Using solution 1.	
Using temperature 1.	
Using pressure 1.	
Using reaction 1.	

Reaction 1.	

	  1.494e-01 moles of the following reaction have been added:

	                 Relative
	Reactant            moles

	BaCl2                1.00000

	                 Relative
	Element             moles
	Ba                   1.00000
	Cl                   2.00000

-----------------------------Solution composition------------------------------

	Elements           Molality       Moles

	Ba                1.494e-01   1.494e-01
	Cl                2.988e-01   2.988e-01

----------------------------Description of solution----------------------------

                                       pH  =   7.081      Charge balance
                                       pe  =  -0.389      Adjusted to redox equilibrium
      Specific Conductance (µS/cm,  15°C)  = 24671
                          Density (g/cm³)  =   1.02647
                               Volume (L)  =   1.00452
                        Viscosity (mPa s)  =   1.17501
                        Activity of water  =   0.992
                 Ionic strength (mol/kgw)  =   4.482e-01
                       Mass of water (kg)  =   1.000e+00
                 Total alkalinity (eq/kg)  =   5.246e-17
                         Temperature (°C)  =  15.00
                  Electrical balance (eq)  =   9.452e-12
 Percent error, 100*(Cat-|An|)/(Cat+|An|)  =   0.00
                               Iterations  =  14
                                  Total H  = 1.110124e+02
                                  Total O  = 5.550622e+01

----------------------------Distribution of species----------------------------

                                               Log       Log       Log    mole V
   Species          Molality    Activity  Molality  Activity     Gamma   cm³/mol

   H+              1.077e-07   8.303e-08    -6.968    -7.081    -0.113      0.00
   OH-             8.401e-08   5.422e-08    -7.076    -7.266    -0.190     -3.59
   H2O             5.551e+01   9.924e-01     1.744    -0.003     0.000     18.03
Ba            1.494e-01
   Ba+2            1.494e-01   4.711e-02    -0.826    -1.327    -0.501    -12.21
   BaOH+           2.760e-08   1.908e-08    -7.559    -7.719    -0.160     (0)  
Cl            2.988e-01
   Cl-             2.988e-01   1.976e-01    -0.525    -0.704    -0.180     18.23
   HCl             3.877e-09   6.015e-09    -8.412    -8.221     0.191     19.56
H(0)          5.814e-17
   H2              2.907e-17   3.240e-17   -16.537   -16.489     0.047     14.15
O(0)          0.000e+00
   O2              0.000e+00   0.000e+00   -62.878   -62.833     0.045     29.51

------------------------------Saturation indices-------------------------------

  Phase               SI** log IAP   log K(288 K,   1 atm)

  H2(g)           -13.41    -16.49   -3.08  H2
  H2O(g)           -1.77     -0.00    1.77  H2O
  O2(g)           -60.02    -62.83   -2.81  O2

**For a gas, SI = log10(fugacity). Fugacity = pressure * phi / 1 atm.
  For ideal gases, phi = 1.

Reaction step 10.

Using solution 1.	
Using temperature 1.	
Using pressure 1.	
Using reaction 1.	

Reaction 1.	

	  2.000e-01 moles of the following reaction have been added:

	                 Relative
	Reactant            moles

	BaCl2                1.00000

	                 Relative
	Element             moles
	Ba                   1.00000
	Cl                   2.00000

-----------------------------Solution composition------------------------------

	Elements           Molality       Moles

	Ba                2.000e-01   2.000e-01
	Cl                4.000e-01   4.000e-01

----------------------------Description of solution----------------------------

                                       pH  =   7.063      Charge balance
                                       pe  =   0.144      Adjusted to redox equilibrium
      Specific Conductance (µS/cm,  15°C)  = 32024
                          Density (g/cm³)  =   1.03559
                               Volume (L)  =   1.00585
                        Viscosity (mPa s)  =   1.18709
                        Activity of water  =   0.990
                 Ionic strength (mol/kgw)  =   6.000e-01
                       Mass of water (kg)  =   1.000e+00
                 Total alkalinity (eq/kg)  =  -1.203e-17
                         Temperature (°C)  =  15.00
                  Electrical balance (eq)  =   6.799e-15
 Percent error, 100*(Cat-|An|)/(Cat+|An|)  =   0.00
                               Iterations  =  48
                                  Total H  = 1.110124e+02
                                  Total O  = 5.550622e+01

----------------------------Distribution of species----------------------------

                                               Log       Log       Log    mole V
   Species          Molality    Activity  Molality  Activity     Gamma   cm³/mol

   H+              1.136e-07   8.643e-08    -6.945    -7.063    -0.119      0.00
   OH-             8.348e-08   5.195e-08    -7.078    -7.284    -0.206     -3.33
   H2O             5.551e+01   9.898e-01     1.744    -0.004     0.000     18.03
Ba            2.000e-01
   Ba+2            2.000e-01   6.007e-02    -0.699    -1.221    -0.522    -11.91
   BaOH+           3.459e-08   2.331e-08    -7.461    -7.633    -0.171     (0)  
Cl            4.000e-01
   Cl-             4.000e-01   2.569e-01    -0.398    -0.590    -0.192     18.32
   HCl             4.521e-09   8.139e-09    -8.345    -8.089     0.255     19.56
H(0)          5.231e-18
   H2              2.616e-18   3.024e-18   -17.582   -17.519     0.063     14.15
O(0)          0.000e+00
   O2              0.000e+00   0.000e+00   -60.835   -60.775     0.060     29.51

------------------------------Saturation indices-------------------------------

  Phase               SI** log IAP   log K(288 K,   1 atm)

  H2(g)           -14.44    -17.52   -3.08  H2
  H2O(g)           -1.77     -0.00    1.77  H2O
  O2(g)           -57.96    -60.78   -2.81  O2

**For a gas, SI = log10(fugacity). Fugacity = pressure * phi / 1 atm.
  For ideal gases, phi = 1.

Reaction step 11.

Using solution 1.	
Using temperature 1.	
Using pressure 1.	
Using reaction 1.	

Reaction 1.	

	  3.004e-01 moles of the following reaction have been added:

	                 Relative
	Reactant            moles

	BaCl2                1.00000

	                 Relative
	Element             moles
	Ba                   1.00000
	Cl                   2.00000

-----------------------------Solution composition------------------------------

	Elements           Molality       Moles

	Ba                3.004e-01   3.004e-01
	Cl                6.008e-01   6.008e-01

----------------------------Description of solution----------------------------

                                       pH  =   7.033      Charge balance
                                       pe  =  -0.232      Adjusted to redox equilibrium
      Specific Conductance (µS/cm,  15°C)  = 45609
                          Density (g/cm³)  =   1.05353
                               Volume (L)  =   1.00857
                        Viscosity (mPa s)  =   1.21183
                        Activity of water  =   0.985
                 Ionic strength (mol/kgw)  =   9.012e-01
                       Mass of water (kg)  =   1.000e+00
                 Total alkalinity (eq/kg)  =   1.688e-17
                         Temperature (°C)  =  15.00
                  Electrical balance (eq)  =   2.344e-12
 Percent error, 100*(Cat-|An|)/(Cat+|An|)  =   0.00
                               Iterations  =  10
                                  Total H  = 1.110124e+02
                                  Total O  = 5.550622e+01

----------------------------Distribution of species----------------------------

                                               Log       Log       Log    mole V
   Species          Molality    Activity  Molality  Activity     Gamma   cm³/mol

   H+              1.237e-07   9.267e-08    -6.908    -7.033    -0.126      0.00
   OH-             8.154e-08   4.820e-08    -7.089    -7.317    -0.228     -2.85
   H2O             5.551e+01   9.847e-01     1.744    -0.007     0.000     18.03
Ba            3.004e-01
   Ba+2            3.004e-01   8.567e-02    -0.522    -1.067    -0.545    -11.42
   BaOH+           4.741e-08   3.085e-08    -7.324    -7.511    -0.187     (0)  
Cl            6.008e-01
   Cl-             6.008e-01   3.716e-01    -0.221    -0.430    -0.209     18.47
   HCl             5.219e-09   1.262e-08    -8.282    -7.899     0.384     19.56
H(0)          3.155e-17
   H2              1.577e-17   1.961e-17   -16.802   -16.707     0.095     14.15
O(0)          0.000e+00
   O2              0.000e+00   0.000e+00   -62.494   -62.403     0.090     29.51

------------------------------Saturation indices-------------------------------

  Phase               SI** log IAP   log K(288 K,   1 atm)

  H2(g)           -13.63    -16.71   -3.08  H2
  H2O(g)           -1.78     -0.01    1.77  H2O
  O2(g)           -59.59    -62.40   -2.81  O2

**For a gas, SI = log10(fugacity). Fugacity = pressure * phi / 1 atm.
  For ideal gases, phi = 1.

Reaction step 12.

Using solution 1.	
Using temperature 1.	
Using pressure 1.	
Using reaction 1.	

Reaction 1.	

	  4.064e-01 moles of the following reaction have been added:

	                 Relative
	Reactant            moles

	BaCl2                1.00000

	                 Relative
	Element             moles
	Ba                   1.00000
	Cl                   2.00000

-----------------------------Solution composition------------------------------

	Elements           Molality       Moles

	Ba                4.064e-01   4.064e-01
	Cl                8.128e-01   8.128e-01

----------------------------Description of solution----------------------------

                                       pH  =   7.005      Charge balance
                                       pe  =  -0.199      Adjusted to redox equilibrium
      Specific Conductance (µS/cm,  15°C)  = 58641
                          Density (g/cm³)  =   1.07224
                               Volume (L)  =   1.01156
                        Viscosity (mPa s)  =   1.23918
                        Activity of water  =   0.979
                 Ionic strength (mol/kgw)  =   1.219e+00
                       Mass of water (kg)  =   1.000e+00
                 Total alkalinity (eq/kg)  =   1.500e-17
                         Temperature (°C)  =  15.00
                  Electrical balance (eq)  =   6.855e-11
 Percent error, 100*(Cat-|An|)/(Cat+|An|)  =   0.00
                               Iterations  =  21
                                  Total H  = 1.110124e+02
                                  Total O  = 5.550622e+01

----------------------------Distribution of species----------------------------

                                               Log       Log       Log    mole V
   Species          Molality    Activity  Molality  Activity     Gamma   cm³/mol

   H+              1.335e-07   9.888e-08    -6.875    -7.005    -0.130      0.00
   OH-             7.894e-08   4.493e-08    -7.103    -7.347    -0.245     -2.37
   H2O             5.551e+01   9.793e-01     1.744    -0.009     0.000     18.03
Ba            4.064e-01
   Ba+2            4.064e-01   1.134e-01    -0.391    -0.946    -0.555    -10.99
   BaOH+           5.995e-08   3.804e-08    -7.222    -7.420    -0.198     (0)  
Cl            8.128e-01
   Cl-             8.128e-01   4.908e-01    -0.090    -0.309    -0.219     18.60
   HCl             5.386e-09   1.779e-08    -8.269    -7.750     0.519     19.56
H(0)          2.855e-17
   H2              1.427e-17   1.917e-17   -16.845   -16.717     0.128     14.15
O(0)          0.000e+00
   O2              0.000e+00   0.000e+00   -62.510   -62.388     0.122     29.51

------------------------------Saturation indices-------------------------------

  Phase               SI** log IAP   log K(288 K,   1 atm)

  H2(g)           -13.64    -16.72   -3.08  H2
  H2O(g)           -1.78     -0.01    1.77  H2O
  O2(g)           -59.58    -62.39   -2.81  O2

**For a gas, SI = log10(fugacity). Fugacity = pressure * phi / 1 atm.
  For ideal gases, phi = 1.

Reaction step 13.

Using solution 1.	
Using temperature 1.	
Using pressure 1.	
Using reaction 1.	

Reaction 1.	

	  5.000e-01 moles of the following reaction have been added:

	                 Relative
	Reactant            moles

	BaCl2                1.00000

	                 Relative
	Element             moles
	Ba                   1.00000
	Cl                   2.00000

-----------------------------Solution composition------------------------------

	Elements           Molality       Moles

	Ba                5.000e-01   5.000e-01
	Cl                1.000e+00   1.000e+00

----------------------------Description of solution----------------------------

                                       pH  =   6.982      Charge balance
                                       pe  =  -0.202      Adjusted to redox equilibrium
      Specific Conductance (µS/cm,  15°C)  = 69120
                          Density (g/cm³)  =   1.08858
                               Volume (L)  =   1.01428
                        Viscosity (mPa s)  =   1.26439
                        Activity of water  =   0.974
                 Ionic strength (mol/kgw)  =   1.500e+00
                       Mass of water (kg)  =   1.000e+00
                 Total alkalinity (eq/kg)  =  -9.007e-18
                         Temperature (°C)  =  15.00
                  Electrical balance (eq)  =   4.933e-10
 Percent error, 100*(Cat-|An|)/(Cat+|An|)  =   0.00
                               Iterations  =  16
                                  Total H  = 1.110124e+02
                                  Total O  = 5.550622e+01

----------------------------Distribution of species----------------------------

                                               Log       Log       Log    mole V
   Species          Molality    Activity  Molality  Activity     Gamma   cm³/mol

   H+              1.417e-07   1.042e-07    -6.849    -6.982    -0.133      0.00
   OH-             7.647e-08   4.242e-08    -7.117    -7.372    -0.256     -1.96
   H2O             5.551e+01   9.745e-01     1.744    -0.011     0.000     18.03
Ba            5.000e-01
   Ba+2            5.000e-01   1.388e-01    -0.301    -0.858    -0.557    -10.66
   BaOH+           7.046e-08   4.398e-08    -7.152    -7.357    -0.205     (0)  
Cl            1.000e+00
   Cl-             1.000e+00   5.957e-01    -0.000    -0.225    -0.225     18.71
   HCl             5.232e-09   2.275e-08    -8.281    -7.643     0.638     19.56
H(0)          3.005e-17
   H2              1.503e-17   2.159e-17   -16.823   -16.666     0.158     14.15
O(0)          0.000e+00
   O2              0.000e+00   0.000e+00   -62.646   -62.496     0.150     29.51

------------------------------Saturation indices-------------------------------

  Phase               SI** log IAP   log K(288 K,   1 atm)

  H2(g)           -13.59    -16.67   -3.08  H2
  H2O(g)           -1.78     -0.01    1.77  H2O
  O2(g)           -59.68    -62.50   -2.81  O2

**For a gas, SI = log10(fugacity). Fugacity = pressure * phi / 1 atm.
  For ideal gases, phi = 1.

Reaction step 14.

Using solution 1.	
Using temperature 1.	
Using pressure 1.	
Using reaction 1.	

Reaction 1.	

	  5.878e-01 moles of the following reaction have been added:

	                 Relative
	Reactant            moles

	BaCl2                1.00000

	                 Relative
	Element             moles
	Ba                   1.00000
	Cl                   2.00000

-----------------------------Solution composition------------------------------

	Elements           Molality       Moles

	Ba                5.878e-01   5.878e-01
	Cl                1.176e+00   1.176e+00

----------------------------Description of solution----------------------------

                                       pH  =   6.962      Charge balance
                                       pe  =  11.150      Adjusted to redox equilibrium
      Specific Conductance (µS/cm,  15°C)  = 78135
                          Density (g/cm³)  =   1.10375
                               Volume (L)  =   1.01690
                        Viscosity (mPa s)  =   1.28895
                        Activity of water  =   0.970
                 Ionic strength (mol/kgw)  =   1.763e+00
                       Mass of water (kg)  =   1.000e+00
                 Total alkalinity (eq/kg)  =  -1.717e-17
                         Temperature (°C)  =  15.00
                  Electrical balance (eq)  =   5.562e-13
 Percent error, 100*(Cat-|An|)/(Cat+|An|)  =   0.00
                               Iterations  =  18
                                  Total H  = 1.110124e+02
                                  Total O  = 5.550622e+01

----------------------------Distribution of species----------------------------

                                               Log       Log       Log    mole V
   Species          Molality    Activity  Molality  Activity     Gamma   cm³/mol

   H+              1.492e-07   1.091e-07    -6.826    -6.962    -0.136      0.00
   OH-             7.413e-08   4.033e-08    -7.130    -7.394    -0.264     -1.59
   H2O             5.551e+01   9.700e-01     1.744    -0.013     0.000     18.03
Ba            5.878e-01
   Ba+2            5.878e-01   1.637e-01    -0.231    -0.786    -0.555    -10.38
   BaOH+           7.997e-08   4.930e-08    -7.097    -7.307    -0.210     (0)  
Cl            1.176e+00
   Cl-             1.176e+00   6.944e-01     0.070    -0.158    -0.229     18.80
   HCl             4.933e-09   2.777e-08    -8.307    -7.556     0.751     19.56
H(0)          6.112e-40
   H2              3.056e-40   4.680e-40   -39.515   -39.330     0.185     14.15
O(0)          8.968e-18
   O2              4.484e-18   6.730e-18   -17.348   -17.172     0.176     29.51

------------------------------Saturation indices-------------------------------

  Phase               SI** log IAP   log K(288 K,   1 atm)

  H2(g)           -36.25    -39.33   -3.08  H2
  H2O(g)           -1.78     -0.01    1.77  H2O
  O2(g)           -14.36    -17.17   -2.81  O2

**For a gas, SI = log10(fugacity). Fugacity = pressure * phi / 1 atm.
  For ideal gases, phi = 1.

Reaction step 15.

Using solution 1.	
Using temperature 1.	
Using pressure 1.	
Using reaction 1.	

Reaction 1.	

	  7.000e-01 moles of the following reaction have been added:

	                 Relative
	Reactant            moles

	BaCl2                1.00000

	                 Relative
	Element             moles
	Ba                   1.00000
	Cl                   2.00000

-----------------------------Solution composition------------------------------

	Elements           Molality       Moles

	Ba                7.000e-01   7.000e-01
	Cl                1.400e+00   1.400e+00

----------------------------Description of solution----------------------------

                                       pH  =   6.938      Charge balance
                                       pe  =  11.073      Adjusted to redox equilibrium
      Specific Conductance (µS/cm,  15°C)  = 88587
                          Density (g/cm³)  =   1.12294
                               Volume (L)  =   1.02034
                        Viscosity (mPa s)  =   1.32159
                        Activity of water  =   0.964
                 Ionic strength (mol/kgw)  =   2.100e+00
                       Mass of water (kg)  =   1.000e+00
                 Total alkalinity (eq/kg)  =   7.304e-18
                         Temperature (°C)  =  15.00
                  Electrical balance (eq)  =   5.196e-15
 Percent error, 100*(Cat-|An|)/(Cat+|An|)  =   0.00
                               Iterations  =  81
                                  Total H  = 1.110124e+02
                                  Total O  = 5.550622e+01

----------------------------Distribution of species----------------------------

                                               Log       Log       Log    mole V
   Species          Molality    Activity  Molality  Activity     Gamma   cm³/mol

   H+              1.585e-07   1.154e-07    -6.800    -6.938    -0.138      0.00
   OH-             7.119e-08   3.792e-08    -7.148    -7.421    -0.274     -1.12
   H2O             5.551e+01   9.643e-01     1.744    -0.016     0.000     18.03
Ba            7.000e-01
   Ba+2            7.000e-01   1.971e-01    -0.155    -0.705    -0.550    -10.05
   BaOH+           9.179e-08   5.584e-08    -7.037    -7.253    -0.216     (0)  
Cl            1.400e+00
   Cl-             1.400e+00   8.213e-01     0.146    -0.085    -0.232     18.90
   HCl             4.435e-09   3.473e-08    -8.353    -7.459     0.894     19.56
H(0)          8.994e-40
   H2              4.497e-40   7.471e-40   -39.347   -39.127     0.220     14.15
O(0)          3.218e-18
   O2              1.609e-18   2.610e-18   -17.793   -17.583     0.210     29.51

------------------------------Saturation indices-------------------------------

  Phase               SI** log IAP   log K(288 K,   1 atm)

  H2(g)           -36.05    -39.13   -3.08  H2
  H2O(g)           -1.79     -0.02    1.77  H2O
  O2(g)           -14.77    -17.58   -2.81  O2

**For a gas, SI = log10(fugacity). Fugacity = pressure * phi / 1 atm.
  For ideal gases, phi = 1.

Reaction step 16.

Using solution 1.	
Using temperature 1.	
Using pressure 1.	
Using reaction 1.	

Reaction 1.	

	  9.921e-01 moles of the following reaction have been added:

	                 Relative
	Reactant            moles

	BaCl2                1.00000

	                 Relative
	Element             moles
	Ba                   1.00000
	Cl                   2.00000

-----------------------------Solution composition------------------------------

	Elements           Molality       Moles

	Ba                9.921e-01   9.921e-01
	Cl                1.984e+00   1.984e+00

----------------------------Description of solution----------------------------

                                       pH  =   6.881      Charge balance
                                       pe  =  11.281      Adjusted to redox equilibrium
      Specific Conductance (µS/cm,  15°C)  = 110857
                          Density (g/cm³)  =   1.17183
                               Volume (L)  =   1.02967
                        Viscosity (mPa s)  =   1.41302
                        Activity of water  =   0.949
                 Ionic strength (mol/kgw)  =   2.976e+00
                       Mass of water (kg)  =   1.000e+00
                 Total alkalinity (eq/kg)  =   2.566e-17
                         Temperature (°C)  =  15.00
                  Electrical balance (eq)  =   6.059e-10
 Percent error, 100*(Cat-|An|)/(Cat+|An|)  =   0.00
                               Iterations  =  32
                                  Total H  = 1.110124e+02
                                  Total O  = 5.550622e+01

----------------------------Distribution of species----------------------------

                                               Log       Log       Log    mole V
   Species          Molality    Activity  Molality  Activity     Gamma   cm³/mol

   H+              1.825e-07   1.315e-07    -6.739    -6.881    -0.142      0.00
   OH-             6.403e-08   3.276e-08    -7.194    -7.485    -0.291      0.08
   H2O             5.551e+01   9.494e-01     1.744    -0.023     0.000     18.03
Ba            9.921e-01
   Ba+2            9.921e-01   2.947e-01    -0.003    -0.531    -0.527     -9.29
   BaOH+           1.215e-07   7.210e-08    -6.915    -7.142    -0.227     (0)  
Cl            1.984e+00
   Cl-             1.984e+00   1.159e+00     0.298     0.064    -0.233     19.15
   HCl             3.023e-09   5.586e-08    -8.520    -7.253     1.267     19.56
H(0)          3.618e-40
   H2              1.809e-40   3.715e-40   -39.743   -39.430     0.313     14.15
O(0)          1.031e-17
   O2              5.156e-18   1.023e-17   -17.288   -16.990     0.298     29.51

------------------------------Saturation indices-------------------------------

  Phase               SI** log IAP   log K(288 K,   1 atm)

  H2(g)           -36.35    -39.43   -3.08  H2
  H2O(g)           -1.79     -0.02    1.77  H2O
  O2(g)           -14.18    -16.99   -2.81  O2

**For a gas, SI = log10(fugacity). Fugacity = pressure * phi / 1 atm.
  For ideal gases, phi = 1.

Reaction step 17.

Using solution 1.	
Using temperature 1.	
Using pressure 1.	
Using reaction 1.	

Reaction 1.	

	  1.000e+00 moles of the following reaction have been added:

	                 Relative
	Reactant            moles

	BaCl2                1.00000

	                 Relative
	Element             moles
	Ba                   1.00000
	Cl                   2.00000

-----------------------------Solution composition------------------------------

	Elements           Molality       Moles

	Ba                1.000e+00   1.000e+00
	Cl                2.000e+00   2.000e+00

----------------------------Description of solution----------------------------

                                       pH  =   6.880      Charge balance
                                       pe  =  11.410      Adjusted to redox equilibrium
      Specific Conductance (µS/cm,  15°C)  = 111371
                          Density (g/cm³)  =   1.17313
                               Volume (L)  =   1.02993
                        Viscosity (mPa s)  =   1.41562
                        Activity of water  =   0.949
                 Ionic strength (mol/kgw)  =   3.000e+00
                       Mass of water (kg)  =   1.000e+00
                 Total alkalinity (eq/kg)  =   2.017e-16
                         Temperature (°C)  =  15.00
                  Electrical balance (eq)  =   4.805e-10
 Percent error, 100*(Cat-|An|)/(Cat+|An|)  =   0.00
                               Iterations  =  11
                                  Total H  = 1.110124e+02
                                  Total O  = 5.550622e+01

----------------------------Distribution of species----------------------------

                                               Log       Log       Log    mole V
   Species          Molality    Activity  Molality  Activity     Gamma   cm³/mol

   H+              1.831e-07   1.319e-07    -6.737    -6.880    -0.143      0.00
   OH-             6.385e-08   3.264e-08    -7.195    -7.486    -0.291      0.11
   H2O             5.551e+01   9.490e-01     1.744    -0.023     0.000     18.03
Ba            1.000e+00
   Ba+2            1.000e+00   2.975e-01    -0.000    -0.526    -0.526     -9.27
   BaOH+           1.223e-07   7.254e-08    -6.913    -7.139    -0.227     (0)  
Cl            2.000e+00
   Cl-             2.000e+00   1.168e+00     0.301     0.068    -0.233     19.15
   HCl             2.987e-09   5.649e-08    -8.525    -7.248     1.277     19.56
H(0)          2.003e-40
   H2              1.001e-40   2.068e-40   -39.999   -39.684     0.315     14.15
O(0)          3.307e-17
   O2              1.653e-17   3.299e-17   -16.782   -16.482     0.300     29.51

------------------------------Saturation indices-------------------------------

  Phase               SI** log IAP   log K(288 K,   1 atm)

  H2(g)           -36.61    -39.68   -3.08  H2
  H2O(g)           -1.79     -0.02    1.77  H2O
  O2(g)           -13.67    -16.48   -2.81  O2

**For a gas, SI = log10(fugacity). Fugacity = pressure * phi / 1 atm.
  For ideal gases, phi = 1.

Reaction step 18.

Using solution 1.	
Using temperature 1.	
Using pressure 1.	
Using reaction 1.	

Reaction 1.	

	  1.200e+00 moles of the following reaction have been added:

	                 Relative
	Reactant            moles

	BaCl2                1.00000

	                 Relative
	Element             moles
	Ba                   1.00000
	Cl                   2.00000

-----------------------------Solution composition------------------------------

	Elements           Molality       Moles

	Ba                1.200e+00   1.200e+00
	Cl                2.400e+00   2.400e+00

----------------------------Description of solution----------------------------

                                       pH  =   6.845      Charge balance
                                       pe  =   0.027      Adjusted to redox equilibrium
      Specific Conductance (µS/cm,  15°C)  = 123037
                          Density (g/cm³)  =   1.20573
                               Volume (L)  =   1.03663
                        Viscosity (mPa s)  =   1.48357
                        Activity of water  =   0.939
                 Ionic strength (mol/kgw)  =   3.600e+00
                       Mass of water (kg)  =   1.000e+00
                 Total alkalinity (eq/kg)  =  -1.084e-16
                         Temperature (°C)  =  15.00
                  Electrical balance (eq)  =   6.646e-15
 Percent error, 100*(Cat-|An|)/(Cat+|An|)  =   0.00
                               Iterations  =  36
                                  Total H  = 1.110124e+02
                                  Total O  = 5.550622e+01

----------------------------Distribution of species----------------------------

                                               Log       Log       Log    mole V
   Species          Molality    Activity  Molality  Activity     Gamma   cm³/mol

   H+              1.995e-07   1.430e-07    -6.700    -6.845    -0.145      0.00
   OH-             5.945e-08   2.978e-08    -7.226    -7.526    -0.300      0.90
   H2O             5.551e+01   9.388e-01     1.744    -0.027     0.000     18.03
Ba            1.200e+00
   Ba+2            1.200e+00   3.747e-01     0.079    -0.426    -0.506     -8.82
   BaOH+           1.422e-07   8.335e-08    -6.847    -7.079    -0.232     (0)  
Cl            2.400e+00
   Cl-             2.400e+00   1.408e+00     0.380     0.149    -0.232     19.30
   HCl             2.168e-09   7.381e-08    -8.664    -7.132     1.532     19.56
H(0)          1.189e-17
   H2              5.943e-18   1.419e-17   -17.226   -16.848     0.378     14.15
O(0)          0.000e+00
   O2              0.000e+00   0.000e+00   -62.524   -62.164     0.360     29.51

------------------------------Saturation indices-------------------------------

  Phase               SI** log IAP   log K(288 K,   1 atm)

  H2(g)           -13.77    -16.85   -3.08  H2
  H2O(g)           -1.80     -0.03    1.77  H2O
  O2(g)           -59.35    -62.16   -2.81  O2

**For a gas, SI = log10(fugacity). Fugacity = pressure * phi / 1 atm.
  For ideal gases, phi = 1.

Reaction step 19.

Using solution 1.	
Using temperature 1.	
Using pressure 1.	
Using reaction 1.	

Reaction 1.	

	  1.224e+00 moles of the following reaction have been added:

	                 Relative
	Reactant            moles

	BaCl2                1.00000

	                 Relative
	Element             moles
	Ba                   1.00000
	Cl                   2.00000

-----------------------------Solution composition------------------------------

	Elements           Molality       Moles

	Ba                1.224e+00   1.224e+00
	Cl                2.449e+00   2.449e+00

----------------------------Description of solution----------------------------

                                       pH  =   6.841      Charge balance
                                       pe  =  11.430      Adjusted to redox equilibrium
      Specific Conductance (µS/cm,  15°C)  = 124290
                          Density (g/cm³)  =   1.20964
                               Volume (L)  =   1.03746
                        Viscosity (mPa s)  =   1.49211
                        Activity of water  =   0.938
                 Ionic strength (mol/kgw)  =   3.673e+00
                       Mass of water (kg)  =   1.000e+00
                 Total alkalinity (eq/kg)  =  -4.007e-17
                         Temperature (°C)  =  15.00
                  Electrical balance (eq)  =   4.520e-12
 Percent error, 100*(Cat-|An|)/(Cat+|An|)  =   0.00
                               Iterations  =  18
                                  Total H  = 1.110124e+02
                                  Total O  = 5.550622e+01

----------------------------Distribution of species----------------------------

                                               Log       Log       Log    mole V
   Species          Molality    Activity  Molality  Activity     Gamma   cm³/mol

   H+              2.015e-07   1.444e-07    -6.696    -6.841    -0.145      0.00
   OH-             5.894e-08   2.946e-08    -7.230    -7.531    -0.301      1.00
   H2O             5.551e+01   9.376e-01     1.744    -0.028     0.000     18.03
Ba            1.224e+00
   Ba+2            1.224e+00   3.847e-01     0.088    -0.415    -0.503     -8.77
   BaOH+           1.446e-07   8.465e-08    -6.840    -7.072    -0.233     (0)  
Cl            2.449e+00
   Cl-             2.449e+00   1.438e+00     0.389     0.158    -0.231     19.31
   HCl             2.080e-09   7.608e-08    -8.682    -7.119     1.563     19.56
H(0)          0.000e+00
   H2              0.000e+00   2.262e-40   -40.031   -39.645     0.386     14.15
O(0)          2.311e-17
   O2              1.155e-17   2.691e-17   -16.937   -16.570     0.367     29.51

------------------------------Saturation indices-------------------------------

  Phase               SI** log IAP   log K(288 K,   1 atm)

  H2(g)           -36.57    -39.65   -3.08  H2
  H2O(g)           -1.80     -0.03    1.77  H2O
  O2(g)           -13.76    -16.57   -2.81  O2

**For a gas, SI = log10(fugacity). Fugacity = pressure * phi / 1 atm.
  For ideal gases, phi = 1.

Reaction step 20.

Using solution 1.	
Using temperature 1.	
Using pressure 1.	
Using reaction 1.	

Reaction 1.	

	  1.500e+00 moles of the following reaction have been added:

	                 Relative
	Reactant            moles

	BaCl2                1.00000

	                 Relative
	Element             moles
	Ba                   1.00000
	Cl                   2.00000

-----------------------------Solution composition------------------------------

	Elements           Molality       Moles

	Ba                1.500e+00   1.500e+00
	Cl                3.000e+00   3.000e+00

----------------------------Description of solution----------------------------

                                       pH  =   6.796      Charge balance
                                       pe  =  -0.491      Adjusted to redox equilibrium
      Specific Conductance (µS/cm,  15°C)  = 136376
                          Density (g/cm³)  =   1.25336
                               Volume (L)  =   1.04708
                        Viscosity (mPa s)  =   1.59309
                        Activity of water  =   0.923
                 Ionic strength (mol/kgw)  =   4.500e+00
                       Mass of water (kg)  =   1.000e+00
                 Total alkalinity (eq/kg)  =   1.060e-16
                         Temperature (°C)  =  15.00
                  Electrical balance (eq)  =   1.032e-15
 Percent error, 100*(Cat-|An|)/(Cat+|An|)  =   0.00
                               Iterations  =  17
                                  Total H  = 1.110124e+02
                                  Total O  = 5.550622e+01

----------------------------Distribution of species----------------------------

                                               Log       Log       Log    mole V
   Species          Molality    Activity  Molality  Activity     Gamma   cm³/mol

   H+              2.244e-07   1.600e-07    -6.649    -6.796    -0.147      0.00
   OH-             5.353e-08   2.619e-08    -7.271    -7.582    -0.311      2.08
   H2O             5.551e+01   9.235e-01     1.744    -0.035     0.000     18.03
Ba            1.500e+00
   Ba+2            1.500e+00   5.085e-01     0.176    -0.294    -0.470     -8.20
   BaOH+           1.721e-07   9.947e-08    -6.764    -7.002    -0.238     (0)  
Cl            3.000e+00
   Cl-             3.000e+00   1.783e+00     0.477     0.251    -0.226     19.49
   HCl             1.271e-09   1.045e-07    -8.896    -6.981     1.915     19.56
H(0)          1.300e-16
   H2              6.502e-17   1.930e-16   -16.187   -15.714     0.472     14.15
O(0)          0.000e+00
   O2              0.000e+00   0.000e+00   -64.895   -64.445     0.450     29.51

------------------------------Saturation indices-------------------------------

  Phase               SI** log IAP   log K(288 K,   1 atm)

  H2(g)           -12.64    -15.71   -3.08  H2
  H2O(g)           -1.80     -0.03    1.77  H2O
  O2(g)           -61.63    -64.45   -2.81  O2

**For a gas, SI = log10(fugacity). Fugacity = pressure * phi / 1 atm.
  For ideal gases, phi = 1.

Reaction step 21.

Using solution 1.	
Using temperature 1.	
Using pressure 1.	
Using reaction 1.	

Reaction 1.	

	  1.586e+00 moles of the following reaction have been added:

	                 Relative
	Reactant            moles

	BaCl2                1.00000

	                 Relative
	Element             moles
	Ba                   1.00000
	Cl                   2.00000

-----------------------------Solution composition------------------------------

	Elements           Molality       Moles

	Ba                1.586e+00   1.586e+00
	Cl                3.172e+00   3.172e+00

----------------------------Description of solution----------------------------

                                       pH  =   6.783      Charge balance
                                       pe  =  11.715      Adjusted to redox equilibrium
      Specific Conductance (µS/cm,  15°C)  = 139428
                          Density (g/cm³)  =   1.26671
                               Volume (L)  =   1.05015
                        Viscosity (mPa s)  =   1.62604
                        Activity of water  =   0.919
                 Ionic strength (mol/kgw)  =   4.757e+00
                       Mass of water (kg)  =   1.000e+00
                 Total alkalinity (eq/kg)  =  -2.510e-16
                         Temperature (°C)  =  15.00
                  Electrical balance (eq)  =  -9.620e-16
 Percent error, 100*(Cat-|An|)/(Cat+|An|)  =  -0.00
                               Iterations  =  20
                                  Total H  = 1.110124e+02
                                  Total O  = 5.550622e+01

----------------------------Distribution of species----------------------------

                                               Log       Log       Log    mole V
   Species          Molality    Activity  Molality  Activity     Gamma   cm³/mol

   H+              2.317e-07   1.649e-07    -6.635    -6.783    -0.148      0.00
   OH-             5.198e-08   2.528e-08    -7.284    -7.597    -0.313      2.41
   H2O             5.551e+01   9.191e-01     1.744    -0.037     0.000     18.03
Ba            1.586e+00
   Ba+2            1.586e+00   5.513e-01     0.200    -0.259    -0.459     -8.04
   BaOH+           1.808e-07   1.041e-07    -6.743    -6.983    -0.240     (0)  
Cl            3.172e+00
   Cl-             3.172e+00   1.893e+00     0.501     0.277    -0.224     19.55
   HCl             1.081e-09   1.145e-07    -8.966    -6.941     2.025     19.56
H(0)          0.000e+00
   H2              0.000e+00   0.000e+00   -40.600   -40.100     0.500     14.15
O(0)          1.404e-16
   O2              7.021e-17   2.099e-16   -16.154   -15.678     0.476     29.51

------------------------------Saturation indices-------------------------------

  Phase               SI** log IAP   log K(288 K,   1 atm)

  H2(g)           -37.02    -40.10   -3.08  H2
  H2O(g)           -1.81     -0.04    1.77  H2O
  O2(g)           -12.87    -15.68   -2.81  O2

**For a gas, SI = log10(fugacity). Fugacity = pressure * phi / 1 atm.
  For ideal gases, phi = 1.

------------------
End of simulation.
------------------

------------------------------------
Reading input data for simulation 3.
------------------------------------

	USE solution 1
	REACTION_TEMPERATURE
	 25.000000
	REACTION_PRESSURE
	 1.000000
	REACTION
	 BaCl2 1
	0 0.003880 0.009300 0.015620 0.027360 0.029500 0.038790 0.050000 0.050100 0.072600 0.078810 0.099800 0.100000 0.149400 0.156900 0.166667 0.200000 0.236470 0.300400 0.316140 0.333333 0.386880 0.406400 0.500000 0.504000 0.587800 0.700000 0.787700 0.831700 0.833333 0.992100 1.000000 1.200000 1.224300 1.253800 1.500000 1.500000 1.503000 1.585800 1.622600
	USER_GRAPH
	 -headings 25.oC
	10 data 0, 23.468045, 22.557733, 23.894426, 24.569435, 24.416802, 24.868136, 25.242099, 24.929573, 25.401255, 25.441698, 25.410838, 27.047115, 25.814888, 26.102926, 26.170699, 26.332243, 26.907893, 27.130840, 27.354525, 27.331509, 27.739107, 27.519066, 28.397786, 29.657731, 28.484175, 30.135384, 29.206810, 30.447445, 29.371041, 29.955730, 30.780148, 31.437404, 30.674231, 31.567360, 32.960994, 31.590919, 32.246795, 31.833738, 32.553137,
	20 dim d(40)
	30 read d(1), d(2), d(3), d(4), d(5), d(6), d(7), d(8), d(9), d(10), d(11), d(12), d(13), d(14), d(15), d(16), d(17), d(18), d(19), d(20), d(21), d(22), d(23), d(24), d(25), d(26), d(27), d(28), d(29), d(30), d(31), d(32), d(33), d(34), d(35), d(36), d(37), d(38), d(39), d(40),
	40 if step_no = 1 then put(rho, 10)
	50 if step_no > 1 then Vmol = (1e3 + tot("Ba") * 208.246) / (tot("Ba") * rho) - 1e3 / (tot("Ba") * get(10))
	60 if step_no = 1 then dif = 0 else dif = Vmol - d(step_no)
	62 if step_no = 1 then goto 90
	70 plot_xy tot("Ba"), d(step_no), line_w = 0, color = Red #aph_x tot("Ba") # dif, str$(tc), str$(pressure), str$(step_no + get(1))
	80 plot_xy tot("Ba"), Vmol, symbol = None, color = Red #step_no = 264 then put(step_no + get(1), 1)
	90 end
	END
-----------------------------------------
Beginning of batch-reaction calculations.
-----------------------------------------

Reaction step 1.

Using solution 1.	
Using temperature 1.	
Using pressure 1.	
Using reaction 1.	

Reaction 1.	

	  0.000e+00 moles of the following reaction have been added:

	                 Relative
	Reactant            moles

	BaCl2                1.00000

	                 Relative
	Element             moles
	Ba                   1.00000
	Cl                   2.00000

-----------------------------Solution composition------------------------------

	Elements           Molality       Moles

	Pure water     

----------------------------Description of solution----------------------------

                                       pH  =   6.997      Charge balance
                                       pe  =   4.000      Adjusted to redox equilibrium
      Specific Conductance (µS/cm,  25°C)  = 0
                          Density (g/cm³)  =   0.99704
                               Volume (L)  =   1.00297
                        Viscosity (mPa s)  =   0.89002
                        Activity of water  =   1.000
                 Ionic strength (mol/kgw)  =   1.006e-07
                       Mass of water (kg)  =   1.000e+00
                 Total alkalinity (eq/kg)  =   3.040e-17
                         Temperature (°C)  =  25.00
                  Electrical balance (eq)  =  -3.040e-17
 Percent error, 100*(Cat-|An|)/(Cat+|An|)  =  -0.00
                               Iterations  =   0
                                  Total H  = 1.110124e+02
                                  Total O  = 5.550622e+01

----------------------------Distribution of species----------------------------

                                               Log       Log       Log    mole V
   Species          Molality    Activity  Molality  Activity     Gamma   cm³/mol

   OH-             1.006e-07   1.006e-07    -6.997    -6.997    -0.000     -4.14
   H+              1.006e-07   1.006e-07    -6.997    -6.997    -0.000      0.00
   H2O             5.551e+01   1.000e+00     1.744    -0.000     0.000     18.07
H(0)          1.433e-25
   H2              7.166e-26   7.166e-26   -25.145   -25.145     0.000     14.99
O(0)          0.000e+00
   O2              0.000e+00   0.000e+00   -42.073   -42.073     0.000     30.40

------------------------------Saturation indices-------------------------------

  Phase               SI** log IAP   log K(298 K,   1 atm)

  H2(g)           -22.05    -25.14   -3.10  H2
  H2O(g)           -1.50     -0.00    1.50  H2O
  O2(g)           -39.18    -42.07   -2.89  O2

**For a gas, SI = log10(fugacity). Fugacity = pressure * phi / 1 atm.
  For ideal gases, phi = 1.

Reaction step 2.

Using solution 1.	
Using temperature 1.	
Using pressure 1.	
Using reaction 1.	

Reaction 1.	

	  3.880e-03 moles of the following reaction have been added:

	                 Relative
	Reactant            moles

	BaCl2                1.00000

	                 Relative
	Element             moles
	Ba                   1.00000
	Cl                   2.00000

-----------------------------Solution composition------------------------------

	Elements           Molality       Moles

	Ba                3.880e-03   3.880e-03
	Cl                7.760e-03   7.760e-03

----------------------------Description of solution----------------------------

                                       pH  =   6.992      Charge balance
                                       pe  =  -0.156      Adjusted to redox equilibrium
      Specific Conductance (µS/cm,  25°C)  = 986
                          Density (g/cm³)  =   0.99776
                               Volume (L)  =   1.00306
                        Viscosity (mPa s)  =   0.89182
                        Activity of water  =   1.000
                 Ionic strength (mol/kgw)  =   1.164e-02
                       Mass of water (kg)  =   1.000e+00
                 Total alkalinity (eq/kg)  =   2.992e-17
                         Temperature (°C)  =  25.00
                  Electrical balance (eq)  =   2.686e-14
 Percent error, 100*(Cat-|An|)/(Cat+|An|)  =   0.00
                               Iterations  =   8
                                  Total H  = 1.110124e+02
                                  Total O  = 5.550622e+01

----------------------------Distribution of species----------------------------

                                               Log       Log       Log    mole V
   Species          Molality    Activity  Molality  Activity     Gamma   cm³/mol

   H+              1.120e-07   1.018e-07    -6.951    -6.992    -0.042      0.00
   OH-             1.113e-07   9.944e-08    -6.953    -7.002    -0.049     -4.02
   H2O             5.551e+01   9.998e-01     1.744    -0.000     0.000     18.07
Ba            3.880e-03
   Ba+2            3.880e-03   2.592e-03    -2.411    -2.586    -0.175    -13.27
   BaOH+           9.609e-10   8.628e-10    -9.017    -9.064    -0.047     (0)  
Cl            7.760e-03
   Cl-             7.760e-03   6.939e-03    -2.110    -2.159    -0.049     18.15
   HCl             2.405e-10   2.433e-10    -9.619    -9.614     0.005     20.36
H(0)          2.993e-17
   H2              1.497e-17   1.501e-17   -16.825   -16.824     0.001     14.99
O(0)          0.000e+00
   O2              0.000e+00   0.000e+00   -58.717   -58.715     0.001     30.40

------------------------------Saturation indices-------------------------------

  Phase               SI** log IAP   log K(298 K,   1 atm)

  H2(g)           -13.72    -16.82   -3.10  H2
  H2O(g)           -1.50     -0.00    1.50  H2O
  O2(g)           -55.82    -58.72   -2.89  O2

**For a gas, SI = log10(fugacity). Fugacity = pressure * phi / 1 atm.
  For ideal gases, phi = 1.

Reaction step 3.

Using solution 1.	
Using temperature 1.	
Using pressure 1.	
Using reaction 1.	

Reaction 1.	

	  9.300e-03 moles of the following reaction have been added:

	                 Relative
	Reactant            moles

	BaCl2                1.00000

	                 Relative
	Element             moles
	Ba                   1.00000
	Cl                   2.00000

-----------------------------Solution composition------------------------------

	Elements           Molality       Moles

	Ba                9.300e-03   9.300e-03
	Cl                1.860e-02   1.860e-02

----------------------------Description of solution----------------------------

                                       pH  =   6.987      Charge balance
                                       pe  =  -0.155      Adjusted to redox equilibrium
      Specific Conductance (µS/cm,  25°C)  = 2281
                          Density (g/cm³)  =   0.99876
                               Volume (L)  =   1.00318
                        Viscosity (mPa s)  =   0.89334
                        Activity of water  =   1.000
                 Ionic strength (mol/kgw)  =   2.790e-02
                       Mass of water (kg)  =   1.000e+00
                 Total alkalinity (eq/kg)  =   3.116e-17
                         Temperature (°C)  =  25.00
                  Electrical balance (eq)  =   7.993e-12
 Percent error, 100*(Cat-|An|)/(Cat+|An|)  =   0.00
                               Iterations  =   8
                                  Total H  = 1.110124e+02
                                  Total O  = 5.550622e+01

----------------------------Distribution of species----------------------------

                                               Log       Log       Log    mole V
   Species          Molality    Activity  Molality  Activity     Gamma   cm³/mol

   H+              1.174e-07   1.029e-07    -6.930    -6.987    -0.057      0.00
   OH-             1.159e-07   9.829e-08    -6.936    -7.007    -0.071     -3.95
   H2O             5.551e+01   9.995e-01     1.744    -0.000     0.000     18.07
Ba            9.300e-03
   Ba+2            9.300e-03   5.306e-03    -2.032    -2.275    -0.244    -13.03
   BaOH+           2.037e-09   1.746e-09    -8.691    -8.758    -0.067     (0)  
Cl            1.860e-02
   Cl-             1.860e-02   1.581e-02    -1.730    -1.801    -0.071     18.20
   HCl             5.455e-10   5.606e-10    -9.263    -9.251     0.012     20.36
H(0)          3.037e-17
   H2              1.518e-17   1.529e-17   -16.819   -16.816     0.003     14.99
O(0)          0.000e+00
   O2              0.000e+00   0.000e+00   -58.734   -58.732     0.003     30.40

------------------------------Saturation indices-------------------------------

  Phase               SI** log IAP   log K(298 K,   1 atm)

  H2(g)           -13.72    -16.82   -3.10  H2
  H2O(g)           -1.50     -0.00    1.50  H2O
  O2(g)           -55.84    -58.73   -2.89  O2

**For a gas, SI = log10(fugacity). Fugacity = pressure * phi / 1 atm.
  For ideal gases, phi = 1.

Reaction step 4.

Using solution 1.	
Using temperature 1.	
Using pressure 1.	
Using reaction 1.	

Reaction 1.	

	  1.562e-02 moles of the following reaction have been added:

	                 Relative
	Reactant            moles

	BaCl2                1.00000

	                 Relative
	Element             moles
	Ba                   1.00000
	Cl                   2.00000

-----------------------------Solution composition------------------------------

	Elements           Molality       Moles

	Ba                1.562e-02   1.562e-02
	Cl                3.124e-02   3.124e-02

----------------------------Description of solution----------------------------

                                       pH  =   6.983      Charge balance
                                       pe  =  -0.157      Adjusted to redox equilibrium
      Specific Conductance (µS/cm,  25°C)  = 3733
                          Density (g/cm³)  =   0.99992
                               Volume (L)  =   1.00334
                        Viscosity (mPa s)  =   0.89490
                        Activity of water  =   0.999
[...]

   OH-             2.449e-06   1.125e-06    -5.611    -5.949    -0.338     -4.16
   H+              2.424e-06   1.634e-06    -5.615    -5.787    -0.171      0.00
   H2O             5.551e+01   9.700e-01     1.744    -0.013     0.000     19.45
Ba            5.878e-01
   Ba+2            5.878e-01   1.099e-01    -0.231    -0.959    -0.728     -7.33
   BaOH+           4.093e-09   2.213e-09    -8.388    -8.655    -0.267     (0)  
Cl            1.176e+00
   Cl-             1.176e+00   5.886e-01     0.070    -0.230    -0.300     15.89
   HCl             2.884e-08   1.624e-07    -7.540    -6.789     0.751     23.79
H(0)          1.648e-25
   H2              8.241e-26   1.262e-25   -25.084   -24.899     0.185     19.85
O(0)          6.379e-18
   O2              3.189e-18   4.787e-18   -17.496   -17.320     0.176     35.45

------------------------------Saturation indices-------------------------------

  Phase               SI** log IAP   log K(413 K,   4 atm)

  H2(g)           -21.91    -24.90   -2.99  H2
  H2O(g)            0.53     -0.01   -0.54  H2O
  O2(g)           -14.26    -17.32   -3.06  O2

**For a gas, SI = log10(fugacity). Fugacity = pressure * phi / 1 atm.
  For ideal gases, phi = 1.

Reaction step 13.

Using solution 1.	
Using temperature 1.	
Using pressure 1.	
Using reaction 1.	

Reaction 1.	

	  7.877e-01 moles of the following reaction have been added:

	                 Relative
	Reactant            moles

	BaCl2                1.00000

	                 Relative
	Element             moles
	Ba                   1.00000
	Cl                   2.00000

-----------------------------Solution composition------------------------------

	Elements           Molality       Moles

	Ba                7.877e-01   7.877e-01
	Cl                1.575e+00   1.575e+00

----------------------------Description of solution----------------------------

                                       pH  =   5.781      Charge balance
                                       pe  =   0.353      Adjusted to redox equilibrium
      Specific Conductance (µS/cm, 140°C)  = 318277
                          Density (g/cm³)  =   1.05813
                               Volume (L)  =   1.10008
                        Viscosity (mPa s)  =   0.26262
                        Activity of water  =   0.960
                 Ionic strength (mol/kgw)  =   2.363e+00
                       Mass of water (kg)  =   1.000e+00
                 Total alkalinity (eq/kg)  =   1.338e-16
                         Temperature (°C)  = 140.00
                           Pressure (atm)  =  3.57
                  Electrical balance (eq)  =   4.096e-15
 Percent error, 100*(Cat-|An|)/(Cat+|An|)  =   0.00
                               Iterations  =  12
                                  Total H  = 1.110124e+02
                                  Total O  = 5.550622e+01

----------------------------Distribution of species----------------------------

                                               Log       Log       Log    mole V
   Species          Molality    Activity  Molality  Activity     Gamma   cm³/mol

   OH-             2.497e-06   1.099e-06    -5.603    -5.959    -0.356     -2.83
   H+              2.481e-06   1.655e-06    -5.605    -5.781    -0.176      0.00
   H2O             5.551e+01   9.598e-01     1.744    -0.018     0.000     19.45
Ba            7.877e-01
   Ba+2            7.877e-01   1.495e-01    -0.104    -0.825    -0.722     -7.08
   BaOH+           5.582e-09   2.940e-09    -8.253    -8.532    -0.278     (0)  
Cl            1.575e+00
   Cl-             1.575e+00   7.755e-01     0.197    -0.110    -0.308     16.45
   HCl             2.138e-08   2.166e-07    -7.670    -6.664     1.006     23.79
H(0)          1.884e-16
   H2              9.419e-17   1.668e-16   -16.026   -15.778     0.248     19.85
O(0)          3.117e-36
   O2              1.558e-36   2.685e-36   -35.807   -35.571     0.236     35.45

------------------------------Saturation indices-------------------------------

  Phase               SI** log IAP   log K(413 K,   4 atm)

  H2(g)           -12.79    -15.78   -2.99  H2
  H2O(g)            0.52     -0.02   -0.54  H2O
  O2(g)           -32.51    -35.57   -3.06  O2

**For a gas, SI = log10(fugacity). Fugacity = pressure * phi / 1 atm.
  For ideal gases, phi = 1.

Reaction step 14.

Using solution 1.	
Using temperature 1.	
Using pressure 1.	
Using reaction 1.	

Reaction 1.	

	  8.333e-01 moles of the following reaction have been added:

	                 Relative
	Reactant            moles

	BaCl2                1.00000

	                 Relative
	Element             moles
	Ba                   1.00000
	Cl                   2.00000

-----------------------------Solution composition------------------------------

	Elements           Molality       Moles

	Ba                8.333e-01   8.333e-01
	Cl                1.667e+00   1.667e+00

----------------------------Description of solution----------------------------

                                       pH  =   5.780      Charge balance
                                       pe  =   5.326      Adjusted to redox equilibrium
      Specific Conductance (µS/cm, 140°C)  = 328889
                          Density (g/cm³)  =   1.06541
                               Volume (L)  =   1.10149
                        Viscosity (mPa s)  =   0.26659
                        Activity of water  =   0.957
                 Ionic strength (mol/kgw)  =   2.500e+00
                       Mass of water (kg)  =   1.000e+00
                 Total alkalinity (eq/kg)  =  -1.487e-16
                         Temperature (°C)  = 140.00
                           Pressure (atm)  =  3.57
                  Electrical balance (eq)  =   1.799e-14
 Percent error, 100*(Cat-|An|)/(Cat+|An|)  =   0.00
                               Iterations  =  14
                                  Total H  = 1.110124e+02
                                  Total O  = 5.550622e+01

----------------------------Distribution of species----------------------------

                                               Log       Log       Log    mole V
   Species          Molality    Activity  Molality  Activity     Gamma   cm³/mol

   OH-             2.505e-06   1.094e-06    -5.601    -5.961    -0.360     -2.53
   H+              2.491e-06   1.659e-06    -5.604    -5.780    -0.177      0.00
   H2O             5.551e+01   9.575e-01     1.744    -0.019     0.000     19.45
Ba            8.333e-01
   Ba+2            8.333e-01   1.591e-01    -0.079    -0.798    -0.719     -7.04
   BaOH+           5.942e-09   3.115e-09    -8.226    -8.507    -0.281     (0)  
Cl            1.667e+00
   Cl-             1.667e+00   8.186e-01     0.222    -0.087    -0.309     16.56
   HCl             1.978e-08   2.292e-07    -7.704    -6.640     1.064     23.79
H(0)          2.075e-26
   H2              1.038e-26   1.899e-26   -25.984   -25.721     0.263     19.85
O(0)          2.318e-16
   O2              1.159e-16   2.061e-16   -15.936   -15.686     0.250     35.45

------------------------------Saturation indices-------------------------------

  Phase               SI** log IAP   log K(413 K,   4 atm)

  H2(g)           -22.74    -25.72   -2.99  H2
  H2O(g)            0.52     -0.02   -0.54  H2O
  O2(g)           -12.62    -15.69   -3.06  O2

**For a gas, SI = log10(fugacity). Fugacity = pressure * phi / 1 atm.
  For ideal gases, phi = 1.

Reaction step 15.

Using solution 1.	
Using temperature 1.	
Using pressure 1.	
Using reaction 1.	

Reaction 1.	

	  9.921e-01 moles of the following reaction have been added:

	                 Relative
	Reactant            moles

	BaCl2                1.00000

	                 Relative
	Element             moles
	Ba                   1.00000
	Cl                   2.00000

-----------------------------Solution composition------------------------------

	Elements           Molality       Moles

	Ba                9.921e-01   9.921e-01
	Cl                1.984e+00   1.984e+00

----------------------------Description of solution----------------------------

                                       pH  =   5.778      Charge balance
                                       pe  =   5.655      Adjusted to redox equilibrium
      Specific Conductance (µS/cm, 140°C)  = 361880
                          Density (g/cm³)  =   1.09047
                               Volume (L)  =   1.10649
                        Viscosity (mPa s)  =   0.28069
                        Activity of water  =   0.949
                 Ionic strength (mol/kgw)  =   2.976e+00
                       Mass of water (kg)  =   1.000e+00
                 Total alkalinity (eq/kg)  =  -1.055e-16
                         Temperature (°C)  = 140.00
                           Pressure (atm)  =  3.57
                  Electrical balance (eq)  =   3.048e-11
 Percent error, 100*(Cat-|An|)/(Cat+|An|)  =   0.00
                               Iterations  =   7
                                  Total H  = 1.110124e+02
                                  Total O  = 5.550622e+01

----------------------------Distribution of species----------------------------

                                               Log       Log       Log    mole V
   Species          Molality    Activity  Molality  Activity     Gamma   cm³/mol

   OH-             2.529e-06   1.078e-06    -5.597    -5.968    -0.370     -1.54
   H+              2.521e-06   1.669e-06    -5.598    -5.778    -0.179      0.00
   H2O             5.551e+01   9.494e-01     1.744    -0.023     0.000     19.45
Ba            9.921e-01
   Ba+2            9.921e-01   1.945e-01    -0.003    -0.711    -0.708     -6.90
   BaOH+           7.265e-09   3.753e-09    -8.139    -8.426    -0.287     (0)  
Cl            1.984e+00
   Cl-             1.984e+00   9.703e-01     0.298    -0.013    -0.311     16.93
   HCl             1.479e-08   2.733e-07    -7.830    -6.563     1.267     23.79
H(0)          4.108e-27
   H2              2.054e-27   4.218e-27   -26.687   -26.375     0.313     19.85
O(0)          4.138e-15
   O2              2.069e-15   4.106e-15   -14.684   -14.387     0.298     35.45

------------------------------Saturation indices-------------------------------

  Phase               SI** log IAP   log K(413 K,   4 atm)

  H2(g)           -23.39    -26.37   -2.99  H2
  H2O(g)            0.52     -0.02   -0.54  H2O
  O2(g)           -11.32    -14.39   -3.06  O2

**For a gas, SI = log10(fugacity). Fugacity = pressure * phi / 1 atm.
  For ideal gases, phi = 1.

Reaction step 16.

Using solution 1.	
Using temperature 1.	
Using pressure 1.	
Using reaction 1.	

Reaction 1.	

	  1.224e+00 moles of the following reaction have been added:

	                 Relative
	Reactant            moles

	BaCl2                1.00000

	                 Relative
	Element             moles
	Ba                   1.00000
	Cl                   2.00000

-----------------------------Solution composition------------------------------

	Elements           Molality       Moles

	Ba                1.224e+00   1.224e+00
	Cl                2.449e+00   2.449e+00

----------------------------Description of solution----------------------------

                                       pH  =   5.775      Charge balance
                                       pe  =   5.939      Adjusted to redox equilibrium
      Specific Conductance (µS/cm, 140°C)  = 400960
                          Density (g/cm³)  =   1.12642
                               Volume (L)  =   1.11411
                        Viscosity (mPa s)  =   0.30205
                        Activity of water  =   0.938
                 Ionic strength (mol/kgw)  =   3.673e+00
                       Mass of water (kg)  =   1.000e+00
                 Total alkalinity (eq/kg)  =  -5.337e-17
                         Temperature (°C)  = 140.00
                           Pressure (atm)  =  3.57
                  Electrical balance (eq)  =   1.119e-11
 Percent error, 100*(Cat-|An|)/(Cat+|An|)  =   0.00
                               Iterations  =   9
                                  Total H  = 1.110124e+02
                                  Total O  = 5.550622e+01

----------------------------Distribution of species----------------------------

                                               Log       Log       Log    mole V
   Species          Molality    Activity  Molality  Activity     Gamma   cm³/mol

   H+              2.553e-06   1.679e-06    -5.593    -5.775    -0.182      0.00
   OH-             2.553e-06   1.058e-06    -5.593    -5.976    -0.383     -0.15
   H2O             5.551e+01   9.376e-01     1.744    -0.028     0.000     19.45
Ba            1.224e+00
   Ba+2            1.224e+00   2.524e-01     0.088    -0.598    -0.686     -6.74
   BaOH+           9.410e-09   4.780e-09    -8.026    -8.321    -0.294     (0)  
Cl            2.449e+00
   Cl-             2.449e+00   1.198e+00     0.389     0.078    -0.310     17.40
   HCl             9.283e-09   3.395e-07    -8.032    -6.469     1.563     23.79
H(0)          9.491e-28
   H2              4.746e-28   1.153e-27   -27.324   -26.938     0.386     19.85
O(0)          4.599e-14
   O2              2.299e-14   5.357e-14   -13.638   -13.271     0.367     35.45

------------------------------Saturation indices-------------------------------

  Phase               SI** log IAP   log K(413 K,   4 atm)

  H2(g)           -23.95    -26.94   -2.99  H2
  H2O(g)            0.51     -0.03   -0.54  H2O
  O2(g)           -10.21    -13.27   -3.06  O2

**For a gas, SI = log10(fugacity). Fugacity = pressure * phi / 1 atm.
  For ideal gases, phi = 1.

Reaction step 17.

Using solution 1.	
Using temperature 1.	
Using pressure 1.	
Using reaction 1.	

Reaction 1.	

	  1.500e+00 moles of the following reaction have been added:

	                 Relative
	Reactant            moles

	BaCl2                1.00000

	                 Relative
	Element             moles
	Ba                   1.00000
	Cl                   2.00000

-----------------------------Solution composition------------------------------

	Elements           Molality       Moles

	Ba                1.500e+00   1.500e+00
	Cl                3.000e+00   3.000e+00

----------------------------Description of solution----------------------------

                                       pH  =   5.773      Charge balance
                                       pe  =   5.582      Adjusted to redox equilibrium
      Specific Conductance (µS/cm, 140°C)  = 436540
                          Density (g/cm³)  =   1.16807
                               Volume (L)  =   1.12354
                        Viscosity (mPa s)  =   0.32855
                        Activity of water  =   0.923
                 Ionic strength (mol/kgw)  =   4.500e+00
                       Mass of water (kg)  =   1.000e+00
                 Total alkalinity (eq/kg)  =  -9.591e-17
                         Temperature (°C)  = 140.00
                           Pressure (atm)  =  3.57
                  Electrical balance (eq)  =  -3.287e-16
 Percent error, 100*(Cat-|An|)/(Cat+|An|)  =  -0.00
                               Iterations  =   8
                                  Total H  = 1.110124e+02
                                  Total O  = 5.550622e+01

----------------------------Distribution of species----------------------------

                                               Log       Log       Log    mole V
   Species          Molality    Activity  Molality  Activity     Gamma   cm³/mol

   H+              2.578e-06   1.686e-06    -5.589    -5.773    -0.184      0.00
   OH-             2.571e-06   1.038e-06    -5.590    -5.984    -0.394      1.42
   H2O             5.551e+01   9.235e-01     1.744    -0.035     0.000     19.45
Ba            1.500e+00
   Ba+2            1.500e+00   3.318e-01     0.176    -0.479    -0.655     -6.58
   BaOH+           1.233e-08   6.166e-09    -7.909    -8.210    -0.301     (0)  
Cl            3.000e+00
   Cl-             3.000e+00   1.479e+00     0.477     0.170    -0.307     17.89
   HCl             5.115e-09   4.208e-07    -8.291    -6.376     1.915     23.79
H(0)          4.058e-27
   H2              2.029e-27   6.023e-27   -26.693   -26.220     0.473     19.85
O(0)          1.352e-15
   O2              6.762e-16   1.906e-15   -15.170   -14.720     0.450     35.45

------------------------------Saturation indices-------------------------------

  Phase               SI** log IAP   log K(413 K,   4 atm)

  H2(g)           -23.23    -26.22   -2.99  H2
  H2O(g)            0.51     -0.03   -0.54  H2O
  O2(g)           -11.66    -14.72   -3.06  O2

**For a gas, SI = log10(fugacity). Fugacity = pressure * phi / 1 atm.
  For ideal gases, phi = 1.

Reaction step 18.

Using solution 1.	
Using temperature 1.	
Using pressure 1.	
Using reaction 1.	

Reaction 1.	

	  1.586e+00 moles of the following reaction have been added:

	                 Relative
	Reactant            moles

	BaCl2                1.00000

	                 Relative
	Element             moles
	Ba                   1.00000
	Cl                   2.00000

-----------------------------Solution composition------------------------------

	Elements           Molality       Moles

	Ba                1.586e+00   1.586e+00
	Cl                3.172e+00   3.172e+00

----------------------------Description of solution----------------------------

                                       pH  =   5.773      Charge balance
                                       pe  =   5.738      Adjusted to redox equilibrium
      Specific Conductance (µS/cm, 140°C)  = 445713
                          Density (g/cm³)  =   1.18081
                               Volume (L)  =   1.12655
                        Viscosity (mPa s)  =   0.33704
                        Activity of water  =   0.919
                 Ionic strength (mol/kgw)  =   4.757e+00
                       Mass of water (kg)  =   1.000e+00
                 Total alkalinity (eq/kg)  =  -3.070e-16
                         Temperature (°C)  = 140.00
                           Pressure (atm)  =  3.57
                  Electrical balance (eq)  =   9.914e-14
 Percent error, 100*(Cat-|An|)/(Cat+|An|)  =   0.00
                               Iterations  =   8
                                  Total H  = 1.110124e+02
                                  Total O  = 5.550622e+01

----------------------------Distribution of species----------------------------

                                               Log       Log       Log    mole V
   Species          Molality    Activity  Molality  Activity     Gamma   cm³/mol

   H+              2.584e-06   1.687e-06    -5.588    -5.773    -0.185      0.00
   OH-             2.575e-06   1.032e-06    -5.589    -5.986    -0.397      1.89
   H2O             5.551e+01   9.191e-01     1.744    -0.037     0.000     19.45
Ba            1.586e+00
   Ba+2            1.586e+00   3.592e-01     0.200    -0.445    -0.645     -6.54
   BaOH+           1.332e-08   6.638e-09    -7.875    -8.178    -0.303     (0)  
Cl            3.172e+00
   Cl-             3.172e+00   1.569e+00     0.501     0.196    -0.306     18.02
   HCl             4.220e-09   4.467e-07    -8.375    -6.350     2.025     23.79
H(0)          1.863e-27
   H2              9.314e-28   2.942e-27   -27.031   -26.531     0.500     19.85
O(0)          5.291e-15
   O2              2.646e-15   7.912e-15   -14.577   -14.102     0.476     35.45

------------------------------Saturation indices-------------------------------

  Phase               SI** log IAP   log K(413 K,   4 atm)

  H2(g)           -23.55    -26.53   -2.99  H2
  H2O(g)            0.51     -0.04   -0.54  H2O
  O2(g)           -11.04    -14.10   -3.06  O2

**For a gas, SI = log10(fugacity). Fugacity = pressure * phi / 1 atm.
  For ideal gases, phi = 1.

------------------
End of simulation.
------------------

-------------------------------------
Reading input data for simulation 11.
-------------------------------------

