WARNING: Database file from DATABASE keyword is used; command line argument ignored.
   Input file: Vm_CaCl2_sol
  Output file: Vm_CaCl2_sol.out
Database file: ../database/phreeqc.dat

------------------
Reading data base.
------------------

	SOLUTION_MASTER_SPECIES
	SOLUTION_SPECIES
	PHASES
	GAS_BINARY_PARAMETERS
	EXCHANGE_MASTER_SPECIES
	EXCHANGE_SPECIES
	SURFACE_MASTER_SPECIES
	SURFACE_SPECIES
	MEAN_GAMMAS
	RATES
	END
------------------------------------
Reading input data for simulation 1.
------------------------------------

	DATABASE ../database/phreeqc.dat
	SELECTED_OUTPUT 101
	    file                 Vm_CaCl2_sol_101.sel
	USER_PUNCH 101
	    headings Mu SC
	    start
	10 PUNCH STR_F$(MU, 20, 12)
	20 PUNCH STR_F$(SC, 20, 10)
	    end
	SOLUTION 1
	 pH 7 charge
	END
-------------------------------------------
Beginning of initial solution calculations.
-------------------------------------------

Initial solution 1.	

-----------------------------Solution composition------------------------------

	Elements           Molality       Moles

	Pure water     

----------------------------Description of solution----------------------------

                                       pH  =   6.997      Charge balance
                                       pe  =   4.000    
      Specific Conductance (µS/cm,  25°C)  = 0
                          Density (g/cm³)  =   0.99704
                               Volume (L)  =   1.00297
                        Viscosity (mPa s)  =   0.89002
                        Activity of water  =   1.000
                 Ionic strength (mol/kgw)  =   1.006e-07
                       Mass of water (kg)  =   1.000e+00
                 Total alkalinity (eq/kg)  =   3.040e-17
                         Temperature (°C)  =  25.00
                  Electrical balance (eq)  =  -3.040e-17
 Percent error, 100*(Cat-|An|)/(Cat+|An|)  =  -0.00
                               Iterations  =   2
                                  Total H  = 1.110124e+02
                                  Total O  = 5.550622e+01

----------------------------Distribution of species----------------------------

                                               Log       Log       Log    mole V
   Species          Molality    Activity  Molality  Activity     Gamma   cm³/mol

   OH-             1.006e-07   1.006e-07    -6.997    -6.997    -0.000     -4.14
   H+              1.006e-07   1.006e-07    -6.997    -6.997    -0.000      0.00
   H2O             5.551e+01   1.000e+00     1.744    -0.000     0.000     18.07
H(0)          1.433e-25
   H2              7.166e-26   7.166e-26   -25.145   -25.145     0.000     14.99
O(0)          0.000e+00
   O2              0.000e+00   0.000e+00   -42.073   -42.073     0.000     30.40

------------------------------Saturation indices-------------------------------

  Phase               SI** log IAP   log K(298 K,   1 atm)

  H2(g)           -22.05    -25.14   -3.10  H2
  H2O(g)           -1.50     -0.00    1.50  H2O
  O2(g)           -39.18    -42.07   -2.89  O2

**For a gas, SI = log10(fugacity). Fugacity = pressure * phi / 1 atm.
  For ideal gases, phi = 1.

------------------
End of simulation.
------------------

------------------------------------
Reading input data for simulation 2.
------------------------------------

	USE solution 1
	REACTION_TEMPERATURE
	 15.000000
	REACTION_PRESSURE
	 0.000000
	REACTION
	 CaCl2 1
	0 0.050000 0.100000 0.500000 1.000000 2.000000 3.000000 4.000000 6.000000
	USER_GRAPH
	 -headings 15.oC
	-axis_titles "CaCl2 / (mol/kg H2O)" "CaCl2 molar volume / (cm3/mol)"
	10 data 0, 18.829589, 18.946477, 20.954920, 22.731945, 25.408129, 27.642932, 29.475311, 32.659160,
	20 dim d(9)
	30 read d(1), d(2), d(3), d(4), d(5), d(6), d(7), d(8), d(9),
	40 if step_no = 1 then put(rho, 10)
	50 if step_no > 1 then Vmol = (1e3 + tot("Ca") * 110.986) / (tot("Ca") * rho) - 1e3 / (tot("Ca") * get(10))
	60 if step_no = 1 then dif = 0 else dif = Vmol - d(step_no)
	62 if step_no = 1 then goto 90
	70 plot_xy tot("Ca"), d(step_no), line_w = 0, color = Yellow #aph_x tot("Ca") # dif, str$(tc), str$(pressure), str$(step_no + get(1))
	80 plot_xy tot("Ca"), Vmol, symbol = None, color = Yellow #step_no = 264 then put(step_no + get(1), 1)
	90 end
	END
-----------------------------------------
Beginning of batch-reaction calculations.
-----------------------------------------

Reaction step 1.

Using solution 1.	
Using temperature 1.	
Using pressure 1.	
Using reaction 1.	

Reaction 1.	

	  0.000e+00 moles of the following reaction have been added:

	                 Relative
	Reactant            moles

	CaCl2                1.00000

	                 Relative
	Element             moles
	Ca                   1.00000
	Cl                   2.00000

-----------------------------Solution composition------------------------------

	Elements           Molality       Moles

	Pure water     

----------------------------Description of solution----------------------------

                                       pH  =   7.172      Charge balance
                                       pe  =  -0.315      Adjusted to redox equilibrium
      Specific Conductance (µS/cm,  15°C)  = 0
                          Density (g/cm³)  =   0.99905
                               Volume (L)  =   1.00095
                        Viscosity (mPa s)  =   1.13763
                        Activity of water  =   1.000
                 Ionic strength (mol/kgw)  =   6.737e-08
                       Mass of water (kg)  =   1.000e+00
                 Total alkalinity (eq/kg)  =   9.842e-17
                         Temperature (°C)  =  15.00
                           Pressure (atm)  =  0.02
                  Electrical balance (eq)  =  -9.842e-17
 Percent error, 100*(Cat-|An|)/(Cat+|An|)  =  -0.00
                               Iterations  =   7
                                  Total H  = 1.110124e+02
                                  Total O  = 5.550622e+01

----------------------------Distribution of species----------------------------

                                               Log       Log       Log    mole V
   Species          Molality    Activity  Molality  Activity     Gamma   cm³/mol

   OH-             6.737e-08   6.735e-08    -7.172    -7.172    -0.000     -4.66
   H+              6.737e-08   6.735e-08    -7.172    -7.172    -0.000      0.00
   H2O             5.551e+01   1.000e+00     1.744    -0.000     0.000     18.03
H(0)          3.042e-17
   H2              1.521e-17   1.521e-17   -16.818   -16.818     0.000     14.15
O(0)          0.000e+00
   O2              0.000e+00   0.000e+00   -62.169   -62.169     0.000     29.51

------------------------------Saturation indices-------------------------------

  Phase               SI** log IAP   log K(288 K,   0 atm)

  H2(g)           -13.74    -16.82   -3.08  H2
  H2O(g)           -1.77     -0.00    1.77  H2O
  O2(g)           -59.36    -62.17   -2.81  O2

**For a gas, SI = log10(fugacity). Fugacity = pressure * phi / 1 atm.
  For ideal gases, phi = 1.

Reaction step 2.

Using solution 1.	
Using temperature 1.	
Using pressure 1.	
Using reaction 1.	

Reaction 1.	

	  5.000e-02 moles of the following reaction have been added:

	                 Relative
	Reactant            moles

	CaCl2                1.00000

	                 Relative
	Element             moles
	Ca                   1.00000
	Cl                   2.00000

-----------------------------Solution composition------------------------------

	Elements           Molality       Moles

	Ca                5.000e-02   5.000e-02
	Cl                1.000e-01   1.000e-01

----------------------------Description of solution----------------------------

                                       pH  =   7.049      Charge balance
                                       pe  =  -0.279      Adjusted to redox equilibrium
      Specific Conductance (µS/cm,  15°C)  = 8301
                          Density (g/cm³)  =   1.00367
                               Volume (L)  =   1.00187
                        Viscosity (mPa s)  =   1.15844
                        Activity of water  =   0.997
                 Ionic strength (mol/kgw)  =   1.500e-01
                       Mass of water (kg)  =   1.000e+00
                 Total alkalinity (eq/kg)  =   3.453e-17
                         Temperature (°C)  =  15.00
                           Pressure (atm)  =  0.02
                  Electrical balance (eq)  =   9.588e-12
 Percent error, 100*(Cat-|An|)/(Cat+|An|)  =   0.00
                               Iterations  =   9
                                  Total H  = 1.110124e+02
                                  Total O  = 5.550622e+01

----------------------------Distribution of species----------------------------

                                               Log       Log       Log    mole V
   Species          Molality    Activity  Molality  Activity     Gamma   cm³/mol

   H+              1.100e-07   8.926e-08    -6.959    -7.049    -0.091      0.00
   OH-             6.912e-08   5.069e-08    -7.160    -7.295    -0.135     -4.16
   H2O             5.551e+01   9.974e-01     1.744    -0.001     0.000     18.03
Ca            5.000e-02
   Ca+2            5.000e-02   1.769e-02    -1.301    -1.752    -0.451    -17.55
   CaOH+           4.300e-08   3.281e-08    -7.367    -7.484    -0.117     (0)  
Cl            1.000e-01
   Cl-             1.000e-01   7.403e-02    -1.000    -1.131    -0.131     17.98
   HCl             2.091e-09   2.422e-09    -8.680    -8.616     0.064     19.56
H(0)          4.358e-17
   H2              2.179e-17   2.260e-17   -16.662   -16.646     0.016     14.15
O(0)          0.000e+00
   O2              0.000e+00   0.000e+00   -62.530   -62.515     0.015     29.51

------------------------------Saturation indices-------------------------------

  Phase               SI** log IAP   log K(288 K,   0 atm)

  H2(g)           -13.57    -16.65   -3.08  H2
  H2O(g)           -1.77     -0.00    1.77  H2O
  O2(g)           -59.70    -62.52   -2.81  O2

**For a gas, SI = log10(fugacity). Fugacity = pressure * phi / 1 atm.
  For ideal gases, phi = 1.

Reaction step 3.

Using solution 1.	
Using temperature 1.	
Using pressure 1.	
Using reaction 1.	

Reaction 1.	

	  1.000e-01 moles of the following reaction have been added:

	                 Relative
	Reactant            moles

	CaCl2                1.00000

	                 Relative
	Element             moles
	Ca                   1.00000
	Cl                   2.00000

-----------------------------Solution composition------------------------------

	Elements           Molality       Moles

	Ca                1.000e-01   1.000e-01
	Cl                2.000e-01   2.000e-01

----------------------------Description of solution----------------------------

                                       pH  =   6.998      Charge balance
                                       pe  =  -0.174      Adjusted to redox equilibrium
      Specific Conductance (µS/cm,  15°C)  = 15573
                          Density (g/cm³)  =   1.00824
                               Volume (L)  =   1.00284
                        Viscosity (mPa s)  =   1.17623
                        Activity of water  =   0.995
                 Ionic strength (mol/kgw)  =   3.000e-01
                       Mass of water (kg)  =   1.000e+00
                 Total alkalinity (eq/kg)  =   2.512e-17
                         Temperature (°C)  =  15.00
                           Pressure (atm)  =  0.02
                  Electrical balance (eq)  =   2.375e-12
 Percent error, 100*(Cat-|An|)/(Cat+|An|)  =   0.00
                               Iterations  =  10
                                  Total H  = 1.110124e+02
                                  Total O  = 5.550622e+01

----------------------------Distribution of species----------------------------

                                               Log       Log       Log    mole V
   Species          Molality    Activity  Molality  Activity     Gamma   cm³/mol

   H+              1.281e-07   1.005e-07    -6.892    -6.998    -0.105      0.00
   OH-             6.623e-08   4.489e-08    -7.179    -7.348    -0.169     -3.86
   H2O             5.551e+01   9.949e-01     1.744    -0.002     0.000     18.03
Ca            1.000e-01
   Ca+2            1.000e-01   2.948e-02    -1.000    -1.530    -0.530    -17.33
   CaOH+           6.567e-08   4.841e-08    -7.183    -7.315    -0.132     (0)  
Cl            2.000e-01
   Cl-             2.000e-01   1.379e-01    -0.699    -0.860    -0.161     18.12
   HCl             3.788e-09   5.082e-09    -8.422    -8.294     0.128     19.56
H(0)          3.286e-17
   H2              1.643e-17   1.767e-17   -16.784   -16.753     0.031     14.15
O(0)          0.000e+00
   O2              0.000e+00   0.000e+00   -62.334   -62.304     0.030     29.51

------------------------------Saturation indices-------------------------------

  Phase               SI** log IAP   log K(288 K,   0 atm)

  H2(g)           -13.68    -16.75   -3.08  H2
  H2O(g)           -1.77     -0.00    1.77  H2O
  O2(g)           -59.49    -62.30   -2.81  O2

**For a gas, SI = log10(fugacity). Fugacity = pressure * phi / 1 atm.
  For ideal gases, phi = 1.

Reaction step 4.

WARNING: Maximum iterations exceeded, 100

WARNING: Numerical method failed with this set of convergence parameters.

WARNING: Trying smaller step size, pe step size 10, 5 ... 

Using solution 1.	
Using temperature 1.	
Using pressure 1.	
Using reaction 1.	

Reaction 1.	

	  5.000e-01 moles of the following reaction have been added:

	                 Relative
	Reactant            moles

	CaCl2                1.00000

	                 Relative
	Element             moles
	Ca                   1.00000
	Cl                   2.00000

-----------------------------Solution composition------------------------------

	Elements           Molality       Moles

	Ca                5.000e-01   5.000e-01
	Cl                1.000e+00   1.000e+00

----------------------------Description of solution----------------------------

                                       pH  =   6.820      Charge balance
                                       pe  =  11.436      Adjusted to redox equilibrium
      Specific Conductance (µS/cm,  15°C)  = 63432
                          Density (g/cm³)  =   1.04363
                               Volume (L)  =   1.01136
                        Viscosity (mPa s)  =   1.31226
                        Activity of water  =   0.974
                 Ionic strength (mol/kgw)  =   1.500e+00
                       Mass of water (kg)  =   1.000e+00
                 Total alkalinity (eq/kg)  =   3.325e-16
                         Temperature (°C)  =  15.00
                           Pressure (atm)  =  0.02
                  Electrical balance (eq)  =   9.991e-10
 Percent error, 100*(Cat-|An|)/(Cat+|An|)  =   0.00
                               Iterations  =  13 (114 overall)
                                  Total H  = 1.110124e+02
                                  Total O  = 5.550622e+01

----------------------------Distribution of species----------------------------

                                               Log       Log       Log    mole V
   Species          Molality    Activity  Molality  Activity     Gamma   cm³/mol

   H+              2.059e-07   1.514e-07    -6.686    -6.820    -0.133      0.00
   OH-             5.262e-08   2.919e-08    -7.279    -7.535    -0.256     -1.97
   H2O             5.551e+01   9.745e-01     1.744    -0.011     0.000     18.03
Ca            5.000e-01
   Ca+2            5.000e-01   1.342e-01    -0.301    -0.872    -0.571    -16.58
   CaOH+           1.609e-07   1.433e-07    -6.793    -6.844    -0.050     (0)  
Cl            1.000e+00
   Cl-             1.000e+00   5.957e-01    -0.000    -0.225    -0.225     18.71
   HCl             7.604e-09   3.307e-08    -8.119    -7.481     0.638     19.56
H(0)          3.365e-40
   H2              1.682e-40   2.418e-40   -39.774   -39.617     0.157     14.15
O(0)          3.604e-17
   O2              1.802e-17   2.545e-17   -16.744   -16.594     0.150     29.51

------------------------------Saturation indices-------------------------------

  Phase               SI** log IAP   log K(288 K,   0 atm)

  H2(g)           -36.54    -39.62   -3.08  H2
  H2O(g)           -1.78     -0.01    1.77  H2O
  O2(g)           -13.78    -16.59   -2.81  O2

**For a gas, SI = log10(fugacity). Fugacity = pressure * phi / 1 atm.
  For ideal gases, phi = 1.

Reaction step 5.

Using solution 1.	
Using temperature 1.	
Using pressure 1.	
Using reaction 1.	

Reaction 1.	

	  1.000e+00 moles of the following reaction have been added:

	                 Relative
	Reactant            moles

	CaCl2                1.00000

	                 Relative
	Element             moles
	Ca                   1.00000
	Cl                   2.00000

-----------------------------Solution composition------------------------------

	Elements           Molality       Moles

	Ca                1.000e+00   1.000e+00
	Cl                2.000e+00   2.000e+00

----------------------------Description of solution----------------------------

                                       pH  =   6.712      Charge balance
                                       pe  =  -0.383      Adjusted to redox equilibrium
      Specific Conductance (µS/cm,  15°C)  = 108494
                          Density (g/cm³)  =   1.08575
                               Volume (L)  =   1.02324
                        Viscosity (mPa s)  =   1.49239
                        Activity of water  =   0.949
                 Ionic strength (mol/kgw)  =   3.000e+00
                       Mass of water (kg)  =   1.000e+00
                 Total alkalinity (eq/kg)  =   1.526e-16
                         Temperature (°C)  =  15.00
                           Pressure (atm)  =  0.02
                  Electrical balance (eq)  =   8.346e-16
 Percent error, 100*(Cat-|An|)/(Cat+|An|)  =   0.00
                               Iterations  =  48
                                  Total H  = 1.110124e+02
                                  Total O  = 5.550622e+01

----------------------------Distribution of species----------------------------

                                               Log       Log       Log    mole V
   Species          Molality    Activity  Molality  Activity     Gamma   cm³/mol

   H+              2.697e-07   1.942e-07    -6.569    -6.712    -0.143      0.00
   OH-             4.336e-08   2.216e-08    -7.363    -7.654    -0.291      0.10
   H2O             5.551e+01   9.490e-01     1.744    -0.023     0.000     18.03
Ca            1.000e+00
   Ca+2            1.000e+00   3.870e-01    -0.000    -0.412    -0.412    -16.01
   CaOH+           2.308e-07   3.138e-07    -6.637    -6.503     0.133     (0)  
Cl            2.000e+00
   Cl-             2.000e+00   1.168e+00     0.301     0.068    -0.233     19.15
   HCl             4.398e-09   8.319e-08    -8.357    -7.080     1.277     19.56
H(0)          1.673e-16
   H2              8.363e-17   1.727e-16   -16.078   -15.763     0.315     14.15
O(0)          0.000e+00
   O2              0.000e+00   0.000e+00   -64.625   -64.325     0.300     29.51

------------------------------Saturation indices-------------------------------

  Phase               SI** log IAP   log K(288 K,   0 atm)

  H2(g)           -12.69    -15.76   -3.08  H2
  H2O(g)           -1.79     -0.02    1.77  H2O
  O2(g)           -61.51    -64.33   -2.81  O2

**For a gas, SI = log10(fugacity). Fugacity = pressure * phi / 1 atm.
  For ideal gases, phi = 1.

Reaction step 6.

Using solution 1.	
Using temperature 1.	
Using pressure 1.	
Using reaction 1.	

Reaction 1.	

	  2.000e+00 moles of the following reaction have been added:

	                 Relative
	Reactant            moles

	CaCl2                1.00000

	                 Relative
	Element             moles
	Ca                   1.00000
	Cl                   2.00000

-----------------------------Solution composition------------------------------

	Elements           Molality       Moles

	Ca                2.000e+00   2.000e+00
	Cl                4.000e+00   4.000e+00

----------------------------Description of solution----------------------------

                                       pH  =   6.587      Charge balance
                                       pe  =  -0.488      Adjusted to redox equilibrium
      Specific Conductance (µS/cm,  15°C)  = 160368
                          Density (g/cm³)  =   1.16377
                               Volume (L)  =   1.05001
                        Viscosity (mPa s)  =   1.98215
                        Activity of water  =   0.898
                 Ionic strength (mol/kgw)  =   6.000e+00
                       Mass of water (kg)  =   1.000e+00
                 Total alkalinity (eq/kg)  =   1.363e-16
                         Temperature (°C)  =  15.00
                           Pressure (atm)  =  0.02
                  Electrical balance (eq)  =  -2.721e-15
 Percent error, 100*(Cat-|An|)/(Cat+|An|)  =  -0.00
                               Iterations  =  27
                                  Total H  = 1.110124e+02
                                  Total O  = 5.550622e+01

----------------------------Distribution of species----------------------------

                                               Log       Log       Log    mole V
   Species          Molality    Activity  Molality  Activity     Gamma   cm³/mol

   H+              3.653e-07   2.588e-07    -6.437    -6.587    -0.150      0.00
   OH-             3.313e-08   1.574e-08    -7.480    -7.803    -0.323      3.99
   H2O             5.551e+01   8.980e-01     1.744    -0.047     0.000     18.03
Ca            2.000e+00
   Ca+2            2.000e+00   2.035e+00     0.301     0.309     0.008    -15.03
   CaOH+           3.328e-07   1.172e-06    -6.478    -5.931     0.547     (0)  
Cl            4.000e+00
   Cl-             4.000e+00   2.452e+00     0.602     0.389    -0.213     19.78
   HCl             6.500e-10   2.325e-07    -9.187    -6.633     2.554     19.56
H(0)          2.329e-16
   H2              1.165e-16   4.968e-16   -15.934   -15.304     0.630     14.15
O(0)          0.000e+00
   O2              0.000e+00   0.000e+00   -65.891   -65.291     0.600     29.51

------------------------------Saturation indices-------------------------------

  Phase               SI** log IAP   log K(288 K,   0 atm)

  H2(g)           -12.23    -15.30   -3.08  H2
  H2O(g)           -1.82     -0.05    1.77  H2O
  O2(g)           -62.48    -65.29   -2.81  O2

**For a gas, SI = log10(fugacity). Fugacity = pressure * phi / 1 atm.
  For ideal gases, phi = 1.

Reaction step 7.

Using solution 1.	
Using temperature 1.	
Using pressure 1.	
Using reaction 1.	

Reaction 1.	

	  3.000e+00 moles of the following reaction have been added:

	                 Relative
	Reactant            moles

	CaCl2                1.00000

	                 Relative
	Element             moles
	Ca                   1.00000
	Cl                   2.00000

-----------------------------Solution composition------------------------------

	Elements           Molality       Moles

	Ca                3.000e+00   3.000e+00
	Cl                6.000e+00   6.000e+00

----------------------------Description of solution----------------------------

                                       pH  =   6.507      Charge balance
                                       pe  =  -0.329      Adjusted to redox equilibrium
      Specific Conductance (µS/cm,  15°C)  = 168899
                          Density (g/cm³)  =   1.23400
                               Volume (L)  =   1.08020
                        Viscosity (mPa s)  =   2.82632
                        Activity of water  =   0.847
                 Ionic strength (mol/kgw)  =   9.000e+00
                       Mass of water (kg)  =   1.000e+00
                 Total alkalinity (eq/kg)  =  -4.012e-18
                         Temperature (°C)  =  15.00
                           Pressure (atm)  =  0.02
                  Electrical balance (eq)  =  -4.325e-14
 Percent error, 100*(Cat-|An|)/(Cat+|An|)  =  -0.00
                               Iterations  =  33
                                  Total H  = 1.110124e+02
                                  Total O  = 5.550622e+01

----------------------------Distribution of species----------------------------

                                               Log       Log       Log    mole V
   Species          Molality    Activity  Molality  Activity     Gamma   cm³/mol

   H+              4.427e-07   3.111e-07    -6.354    -6.507    -0.153      0.00
   OH-             2.699e-08   1.235e-08    -7.569    -7.908    -0.340      7.73
   H2O             5.551e+01   8.470e-01     1.744    -0.072     0.000     18.03
Ca            3.000e+00
   Ca+2            3.000e+00   8.756e+00     0.477     0.942     0.465    -14.12
   CaOH+           4.158e-07   3.956e-06    -6.381    -5.403     0.978     (0)  
Cl            6.000e+00
   Cl-             6.000e+00   3.991e+00     0.778     0.601    -0.177     20.27
   HCl             6.726e-11   4.552e-07   -10.172    -6.342     3.830     19.56
H(0)          7.833e-17
   H2              3.917e-17   3.451e-16   -16.407   -15.462     0.945     14.15
O(0)          0.000e+00
   O2              0.000e+00   0.000e+00   -65.925   -65.025     0.900     29.51

------------------------------Saturation indices-------------------------------

  Phase               SI** log IAP   log K(288 K,   0 atm)

  H2(g)           -12.39    -15.46   -3.08  H2
  H2O(g)           -1.84     -0.07    1.77  H2O
  O2(g)           -62.21    -65.03   -2.81  O2

**For a gas, SI = log10(fugacity). Fugacity = pressure * phi / 1 atm.
  For ideal gases, phi = 1.

Reaction step 8.

Using solution 1.	
Using temperature 1.	
Using pressure 1.	
Using reaction 1.	

Reaction 1.	

	  4.000e+00 moles of the following reaction have been added:

	                 Relative
	Reactant            moles

	CaCl2                1.00000

	                 Relative
	Element             moles
	Ca                   1.00000
	Cl                   2.00000

-----------------------------Solution composition------------------------------

	Elements           Molality       Moles

	Ca                4.000e+00   4.000e+00
	Cl                8.000e+00   8.000e+00

----------------------------Description of solution----------------------------

                                       pH  =   6.447      Charge balance
                                       pe  =  -0.888      Adjusted to redox equilibrium
      Specific Conductance (µS/cm,  15°C)  = 151040
                          Density (g/cm³)  =   1.29681
                               Volume (L)  =   1.11346
                        Viscosity (mPa s)  =   4.27074
                        Activity of water  =   0.796
                 Ionic strength (mol/kgw)  =   1.200e+01
                       Mass of water (kg)  =   1.000e+00
                 Total alkalinity (eq/kg)  =   6.037e-16
                         Temperature (°C)  =  15.00
                           Pressure (atm)  =  0.02
                  Electrical balance (eq)  =   4.242e-14
 Percent error, 100*(Cat-|An|)/(Cat+|An|)  =   0.00
                               Iterations  =  30
                                  Total H  = 1.110124e+02
                                  Total O  = 5.550622e+01

----------------------------Distribution of species----------------------------

                                               Log       Log       Log    mole V
   Species          Molality    Activity  Molality  Activity     Gamma   cm³/mol

   H+              5.114e-07   3.577e-07    -6.291    -6.447    -0.155      0.00
   OH-             2.261e-08   1.010e-08    -7.646    -7.996    -0.350     11.40
   H2O             5.551e+01   7.960e-01     1.744    -0.099     0.000     18.03
Ca            4.000e+00
   Ca+2            4.000e+00   3.456e+01     0.602     1.539     0.937    -13.23
   CaOH+           4.888e-07   1.276e-05    -6.311    -4.894     1.417     (0)  
Cl            8.000e+00
   Cl-             8.000e+00   5.848e+00     0.903     0.767    -0.136     20.68
   HCl             5.990e-12   7.667e-07   -11.223    -6.115     5.107     19.56
H(0)          6.599e-16
   H2              3.300e-16   6.004e-15   -15.482   -14.222     1.260     14.15
O(0)          0.000e+00
   O2              0.000e+00   0.000e+00   -68.760   -67.560     1.200     29.51

------------------------------Saturation indices-------------------------------

  Phase               SI** log IAP   log K(288 K,   0 atm)

  H2(g)           -11.15    -14.22   -3.08  H2
  H2O(g)           -1.87     -0.10    1.77  H2O
  O2(g)           -64.75    -67.56   -2.81  O2

**For a gas, SI = log10(fugacity). Fugacity = pressure * phi / 1 atm.
  For ideal gases, phi = 1.

Reaction step 9.

Using solution 1.	
Using temperature 1.	
Using pressure 1.	
Using reaction 1.	

Reaction 1.	

	  6.000e+00 moles of the following reaction have been added:

	                 Relative
	Reactant            moles

	CaCl2                1.00000

	                 Relative
	Element             moles
	Ca                   1.00000
	Cl                   2.00000

-----------------------------Solution composition------------------------------

	Elements           Molality       Moles

	Ca                6.000e+00   6.000e+00
	Cl                1.200e+01   1.200e+01

----------------------------Description of solution----------------------------

                                       pH  =   6.357      Charge balance
                                       pe  =  12.695      Adjusted to redox equilibrium
      Specific Conductance (µS/cm,  15°C)  = 99644
                          Density (g/cm³)  =   1.40165
                               Volume (L)  =   1.18854
                        Viscosity (mPa s)  =  10.06873
                        Activity of water  =   0.694
                 Ionic strength (mol/kgw)  =   1.800e+01
                       Mass of water (kg)  =   1.000e+00
                 Total alkalinity (eq/kg)  =  -9.183e-16
                         Temperature (°C)  =  15.00
                           Pressure (atm)  =  0.02
                  Electrical balance (eq)  =  -5.812e-10
 Percent error, 100*(Cat-|An|)/(Cat+|An|)  =  -0.00
                               Iterations  =  39
                                  Total H  = 1.110124e+02
                                  Total O  = 5.550622e+01

----------------------------Distribution of species----------------------------

                                               Log       Log       Log    mole V
   Species          Molality    Activity  Molality  Activity     Gamma   cm³/mol

   H+              6.328e-07   4.399e-07    -6.199    -6.357    -0.158      0.00
   OH-             1.653e-08   7.156e-09    -7.782    -8.145    -0.364     18.61
   H2O             5.551e+01   6.940e-01     1.744    -0.159     0.000     18.03
Ca            6.000e+00
   Ca+2            6.000e+00   4.733e+02     0.778     2.675     1.897    -11.49
   CaOH+           6.163e-07   1.239e-04    -6.210    -3.907     2.303     (0)  
Cl            1.200e+01
   Cl-             1.200e+01   1.078e+01     1.079     1.032    -0.047     21.38
   HCl             3.795e-14   1.738e-06   -13.421    -5.760     7.661     19.56
H(0)          0.000e+00
   H2              0.000e+00   0.000e+00   -43.099   -41.209     1.890     14.15
O(0)          6.260e-16
   O2              3.130e-16   1.975e-14   -15.504   -13.704     1.800     29.51

------------------------------Saturation indices-------------------------------

  Phase               SI** log IAP   log K(288 K,   0 atm)

  H2(g)           -38.13    -41.21   -3.08  H2
  H2O(g)           -1.93     -0.16    1.77  H2O
  O2(g)           -10.89    -13.70   -2.81  O2

**For a gas, SI = log10(fugacity). Fugacity = pressure * phi / 1 atm.
  For ideal gases, phi = 1.

------------------
End of simulation.
------------------

------------------------------------
Reading input data for simulation 3.
------------------------------------

	USE solution 1
	REACTION_TEMPERATURE
	 25.000000
	REACTION_PRESSURE
	 0.000000
	REACTION
	 CaCl2 1
	0 0.012560 0.020300 0.022000 0.022350 0.023900 0.032870 0.033400 0.037000 0.045000 0.046900 0.050000 0.050010 0.050500 0.059000 0.059400 0.066350 0.066700 0.068500 0.072400 0.081600 0.083200 0.083700 0.095830 0.097500 0.099900 0.100000 0.101000 0.120800 0.130100 0.130650 0.131700 0.140600 0.143500 0.143900 0.166600 0.178500 0.185400 0.189100 0.194800 0.196230 0.202300 0.204600 0.251500 0.253500 0.262900 0.263250 0.263300 0.292600 0.328000 0.333400 0.337000 0.337200 0.348800 0.359900 0.393600 0.400700 0.406000 0.416400 0.482300 0.486900 0.499300 0.500000 0.501900 0.502600 0.529500 0.554200 0.573400 0.584300 0.594200 0.604300 0.613900 0.666500 0.669100 0.669600 0.715400 0.775400 0.789000 0.852800 0.867300 0.908200 0.955900 0.992900 0.998900 1.000000 1.005000 1.019200 1.091300 1.157800 1.160700 1.189100 1.274900 1.322600 1.440000 1.475400 1.500100 1.520600 1.522700 1.523400 1.540600 1.666300 1.682500 1.710000 1.755700 1.757500 1.767800 1.781800 1.878800 1.903400 1.940700 1.948400 1.979000 1.999500 2.000000 2.006000 2.020900 2.092900 2.106300 2.116700 2.211500 2.226100 2.293400 2.410600 2.411200 2.500000 2.500400 2.507300 2.588500 2.598900 2.638000 2.787000 2.839100 2.909100 2.958300 3.000000 3.017000 3.036800 3.143800 3.226800 3.228500 3.333200 3.354500 3.444300 3.557900 3.594100 3.623700 3.722100 3.858900 3.909300 3.923500 3.957100 3.966100 4.000000 4.000000 4.058300 4.213700 4.640600 4.697600 4.762500 4.839400 4.858300 4.930500 4.980000 5.000400 5.065400 5.089900 5.359900 5.368300 5.519900 5.549800 5.618900 5.709700 5.868900 5.922200 5.998000 6.000000 6.150600 6.251400 6.285800 6.412400 6.464400 6.658400 6.666800 6.852500 7.076600 7.333000 7.341400 7.400000 7.458900 7.878300 
	USER_GRAPH
	 -headings 25.oC
	10 data 0, 18.712661, 17.130000, 17.314873, 18.967825, 16.365958, 19.358392, 19.847687, 18.140000, 18.358642, 17.830442, 19.787026, 19.346340, 19.459745, 18.211036, 18.833946, 19.521616, 18.640000, 19.340136, 18.726934, 19.270922, 18.650000, 20.364699, 19.821286, 19.782515, 19.657969, 20.048279, 19.865067, 18.810000, 18.660000, 20.164738, 19.767763, 20.516364, 20.040584, 19.797700, 20.470142, 20.294014, 20.072416, 20.246285, 20.307800, 20.623701, 19.460000, 20.208523, 20.716420, 20.943290, 19.850000, 21.009698, 20.834569, 20.852681, 21.341786, 21.537088, 21.264453, 20.240000, 21.380868, 21.346616, 21.238452, 21.544632, 20.560000, 21.490255, 21.905007, 22.041630, 22.426127, 21.920497, 22.072482, 21.851109, 22.037432, 22.284398, 22.212652, 22.281065, 22.205703, 22.480423, 22.362397, 22.596190, 22.669669, 22.632745, 22.786852, 23.041926, 22.983257, 23.204609, 23.337877, 23.404110, 23.623942, 24.116719, 23.693890, 23.620380, 23.780003, 23.758891, 23.967920, 24.111274, 24.142069, 24.243052, 24.466938, 24.585882, 24.889565, 24.973232, 25.011211, 25.151853, 25.139548, 25.110226, 25.152908, 25.402273, 25.497221, 25.527479, 25.723902, 25.692644, 25.694860, 25.688999, 25.949086, 25.995917, 26.076202, 26.100928, 26.186091, 26.144084, 26.147841, 26.255021, 26.304138, 26.399157, 26.449108, 26.443668, 26.672235, 26.670388, 26.864698, 27.071419, 27.064420, 27.400262, 27.232690, 27.258236, 27.408752, 27.418276, 27.475534, 27.750520, 27.852622, 27.938524, 28.054090, 28.320589, 28.151442, 28.416444, 28.372991, 28.525924, 28.510237, 28.606871, 28.736717, 28.840422, 29.048287, 29.066797, 29.111201, 29.275835, 29.459202, 29.549428, 29.593206, 29.620009, 29.638878, 30.130460, 29.380708, 29.774557, 29.989590, 30.608730, 30.572411, 30.784490, 30.869558, 30.895236, 31.010241, 31.027139, 30.961232, 31.200080, 31.227655, 31.606645, 31.604566, 31.839452, 31.874273, 31.976487, 32.102883, 32.326224, 32.397274, 32.504582, 33.241136, 32.721207, 32.851896, 32.935139, 33.094275, 33.164814, 33.425178, 32.948518, 33.704120, 34.004024, 34.361887, 34.363114, 33.832633, 34.516842, 35.096227, 
	20 dim d(190)
	30 read d(1), d(2), d(3), d(4), d(5), d(6), d(7), d(8), d(9), d(10), d(11), d(12), d(13), d(14), d(15), d(16), d(17), d(18), d(19), d(20), d(21), d(22), d(23), d(24), d(25), d(26), d(27), d(28), d(29), d(30), d(31), d(32), d(33), d(34), d(35), d(36), d(37), d(38), d(39), d(40), d(41), d(42), d(43), d(44), d(45), d(46), d(47), d(48), d(49), d(50), d(51), d(52), d(53), d(54), d(55), d(56), d(57), d(58), d(59), d(60), d(61), d(62), d(63), d(64), d(65), d(66), d(67), d(68), d(69), d(70), d(71), d(72), d(73), d(74), d(75), d(76), d(77), d(78), d(79), d(80), d(81), d(82), d(83), d(84), d(85), d(86), d(87), d(88), d(89), d(90), d(91), d(92), d(93), d(94), d(95), d(96), d(97), d(98), d(99), d(100), d(101), d(102), d(103), d(104), d(105), d(106), d(107), d(108), d(109), d(110), d(111), d(112), d(113), d(114), d(115), d(116), d(117), d(118), d(119), d(120), d(121), d(122), d(123), d(124), d(125), d(126), d(127), d(128), d(129), d(130), d(131), d(132), d(133), d(134), d(135), d(136), d(137), d(138), d(139), d(140), d(141), d(142), d(143), d(144), d(145), d(146), d(147), d(148), d(149), d(150), d(151), d(152), d(153), d(154), d(155), d(156), d(157), d(158), d(159), d(160), d(161), d(162), d(163), d(164), d(165), d(166), d(167), d(168), d(169), d(170), d(171), d(172), d(173), d(174), d(175), d(176), d(177), d(178), d(179), d(180), d(181), d(182), d(183), d(184), d(185), d(186), d(187), d(188), d(189), d(190),
	40 if step_no = 1 then put(rho, 10)
	50 if step_no > 1 then Vmol = (1e3 + tot("Ca") * 110.986) / (tot("Ca") * rho) - 1e3 / (tot("Ca") * get(10))
	60 if step_no = 1 then dif = 0 else dif = Vmol - d(step_no)
	62 if step_no = 1 then goto 90
	70 plot_xy tot("Ca"), d(step_no), line_w = 0, color = Red #aph_x tot("Ca") # dif, str$(tc), str$(pressure), str$(step_no + get(1))
	80 plot_xy tot("Ca"), Vmol, symbol = None, color = Red #step_no = 264 then put(step_no + get(1), 1)
	90 end
	END
-----------------------------------------
Beginning of batch-reaction calculations.
-----------------------------------------

Reaction step 1.

Using solution 1.	
Using temperature 1.	
Using pressure 1.	
Using reaction 1.	

Reaction 1.	

	  0.000e+00 moles of the following reaction have been added:

	                 Relative
	Reactant            moles

	CaCl2                1.00000

	                 Relative
	Element             moles
	Ca                   1.00000
	Cl                   2.00000

-----------------------------Solution composition------------------------------

	Elements           Molality       Moles

	Pure water     

----------------------------Description of solution----------------------------

                                       pH  =   6.997      Charge balance
                                       pe  =   4.000      Adjusted to redox equilibrium
      Specific Conductance (µS/cm,  25°C)  = 0
                          Density (g/cm³)  =   0.99700
                               Volume (L)  =   1.00301
                        Viscosity (mPa s)  =   0.89004
                        Activity of water  =   1.000
                 Ionic strength (mol/kgw)  =   1.006e-07
                       Mass of water (kg)  =   1.000e+00
                 Total alkalinity (eq/kg)  =   3.146e-17
                         Temperature (°C)  =  25.00
                           Pressure (atm)  =  0.03
                  Electrical balance (eq)  =  -3.146e-17
 Percent error, 100*(Cat-|An|)/(Cat+|An|)  =  -0.00
                               Iterations  =   0
                                  Total H  = 1.110124e+02
                                  Total O  = 5.550622e+01

----------------------------Distribution of species----------------------------

                                               Log       Log       Log    mole V
   Species          Molality    Activity  Molality  Activity     Gamma   cm³/mol

   OH-             1.006e-07   1.006e-07    -6.997    -6.997    -0.000     -4.14
   H+              1.006e-07   1.006e-07    -6.997    -6.997    -0.000      0.00
   H2O             5.551e+01   1.000e+00     1.744    -0.000     0.000     18.07
H(0)          1.433e-25
   H2              7.166e-26   7.166e-26   -25.145   -25.145     0.000     14.99
O(0)          0.000e+00
   O2              0.000e+00   0.000e+00   -42.073   -42.073     0.000     30.40

------------------------------Saturation indices-------------------------------

  Phase               SI** log IAP   log K(298 K,   0 atm)

  H2(g)           -22.05    -25.14   -3.10  H2
  H2O(g)           -1.50     -0.00    1.50  H2O
  O2(g)           -39.18    -42.07   -2.89  O2

**For a gas, SI = log10(fugacity). Fugacity = pressure * phi / 1 atm.
  For ideal gases, phi = 1.

Reaction step 2.

Using solution 1.	
Using temperature 1.	
Using pressure 1.	
Using reaction 1.	

Reaction 1.	

	  1.256e-02 moles of the following reaction have been added:

	                 Relative
	Reactant            moles

	CaCl2                1.00000

	                 Relative
	Element             moles
	Ca                   1.00000
	Cl                   2.00000

-----------------------------Solution composition------------------------------

	Elements           Molality       Moles

	Ca                1.256e-02   1.256e-02
	Cl                2.512e-02   2.512e-02

----------------------------Description of solution----------------------------

                                       pH  =   6.968      Charge balance
                                       pe  =  -0.139      Adjusted to redox equilibrium
      Specific Conductance (µS/cm,  25°C)  = 2883
                          Density (g/cm³)  =   0.99815
                               Volume (L)  =   1.00325
                        Viscosity (mPa s)  =   0.89565
                        Activity of water  =   0.999
                 Ionic strength (mol/kgw)  =   3.768e-02
                       Mass of water (kg)  =   1.000e+00
                 Total alkalinity (eq/kg)  =   1.057e-16
                         Temperature (°C)  =  25.00
                           Pressure (atm)  =  0.03
                  Electrical balance (eq)  =   1.599e-10
 Percent error, 100*(Cat-|An|)/(Cat+|An|)  =   0.00
                               Iterations  =   8
                                  Total H  = 1.110124e+02
                                  Total O  = 5.550622e+01

----------------------------Distribution of species----------------------------

                                               Log       Log       Log    mole V
   Species          Molality    Activity  Molality  Activity     Gamma   cm³/mol

   H+              1.243e-07   1.076e-07    -6.905    -6.968    -0.063      0.00
   OH-             1.133e-07   9.405e-08    -6.946    -7.027    -0.081     -3.92
   H2O             5.551e+01   9.994e-01     1.744    -0.000     0.000     18.07
Ca            1.256e-02
   Ca+2            1.256e-02   6.381e-03    -1.901    -2.195    -0.294    -17.69
   CaOH+           1.175e-08   9.840e-09    -7.930    -8.007    -0.077     (0)  
Cl            2.512e-02
   Cl-             2.512e-02   2.091e-02    -1.600    -1.680    -0.080     18.23
   HCl             7.465e-10   7.746e-10    -9.127    -9.111     0.016     20.36
H(0)          3.085e-17
   H2              1.542e-17   1.557e-17   -16.812   -16.808     0.004     14.99
O(0)          0.000e+00
   O2              0.000e+00   0.000e+00   -58.751   -58.747     0.004     30.40

------------------------------Saturation indices-------------------------------

  Phase               SI** log IAP   log K(298 K,   0 atm)

  H2(g)           -13.71    -16.81   -3.10  H2
  H2O(g)           -1.50     -0.00    1.50  H2O
  O2(g)           -55.86    -58.75   -2.89  O2

**For a gas, SI = log10(fugacity). Fugacity = pressure * phi / 1 atm.
  For ideal gases, phi = 1.

Reaction step 3.

Using solution 1.	
Using temperature 1.	
Using pressure 1.	
Using reaction 1.	

Reaction 1.	

	  2.030e-02 moles of the following reaction have been added:

	                 Relative
	Reactant            moles

	CaCl2                1.00000

	                 Relative
	Element             moles
	Ca                   1.00000
	Cl                   2.00000

-----------------------------Solution composition------------------------------

	Elements           Molality       Moles

	Ca                2.030e-02   2.030e-02
	Cl                4.060e-02   4.060e-02

----------------------------Description of solution----------------------------

                                       pH  =   6.957      Charge balance
                                       pe  =  -0.113      Adjusted to redox equilibrium
      Specific Conductance (µS/cm,  25°C)  = 4511
                          Density (g/cm³)  =   0.99886
                               Volume (L)  =   1.00339
                        Viscosity (mPa s)  =   0.89834
                        Activity of water  =   0.999
                 Ionic strength (mol/kgw)  =   6.090e-02
                       Mass of water (kg)  =   1.000e+00
                 Total alkalinity (eq/kg)  =   2.814e-17
                         Temperature (°C)  =  25.00
                           Pressure (atm)  =  0.03
                  Electrical balance (eq)  =   8.376e-17
 Percent error, 100*(Cat-|An|)/(Cat+|An|)  =   0.00
                               Iterations  =   9
                                  Total H  = 1.110124e+02
                                  Total O  = 5.550622e+01

----------------------------Distribution of species----------------------------

                                               Log       Log       Log    mole V
   Species          Molality    Activity  Molality  Activity     Gamma   cm³/mol

   H+              1.305e-07   1.104e-07    -6.884    -6.957    -0.073      0.00
   OH-             1.148e-07   9.160e-08    -6.940    -7.038    -0.098     -3.84
   H2O             5.551e+01   9.990e-01     1.744    -0.000     0.000     18.07
Ca            2.030e-02
   Ca+2            2.030e-02   9.105e-03    -1.693    -2.041    -0.348    -17.58
   CaOH+           1.689e-08   1.367e-08    -7.772    -7.864    -0.092     (0)  
Cl            4.060e-02
   Cl-             4.060e-02   3.253e-02    -1.391    -1.488    -0.096     18.27
   HCl             1.165e-09   1.237e-09    -8.934    -8.908     0.026     20.36
H(0)          2.855e-17
   H2              1.428e-17   1.449e-17   -16.845   -16.839     0.006     14.99
O(0)          0.000e+00
   O2              0.000e+00   0.000e+00   -58.692   -58.685     0.006     30.40

------------------------------Saturation indices-------------------------------

  Phase               SI** log IAP   log K(298 K,   0 atm)

  H2(g)           -13.74    -16.84   -3.10  H2
  H2O(g)           -1.50     -0.00    1.50  H2O
  O2(g)           -55.79    -58.69   -2.89  O2

**For a gas, SI = log10(fugacity). Fugacity = pressure * phi / 1 atm.
  For ideal gases, phi = 1.

Reaction step 4.

Using solution 1.	
Using temperature 1.	
Using pressure 1.	
Using reaction 1.	

Reaction 1.	

	  2.200e-02 moles of the following reaction have been added:

	                 Relative
	Reactant            moles

	CaCl2                1.00000

	                 Relative
	Element             moles
	Ca                   1.00000
	Cl                   2.00000

-----------------------------Solution composition------------------------------

	Elements           Molality       Moles

	Ca                2.200e-02   2.200e-02
	Cl                4.400e-02   4.400e-02

----------------------------Description of solution----------------------------

                                       pH  =   6.955      Charge balance
                                       pe  =  -0.110      Adjusted to redox equilibrium
      Specific Conductance (µS/cm,  25°C)  = 4860
                          Density (g/cm³)  =   0.99902
                               Volume (L)  =   1.00343
                        Viscosity (mPa s)  =   0.89891
                        Activity of water  =   0.999
                 Ionic strength (mol/kgw)  =   6.600e-02
                       Mass of water (kg)  =   1.000e+00
                 Total alkalinity (eq/kg)  =   2.847e-17
                         Temperature (°C)  =  25.00
                           Pressure (atm)  =  0.03
                  Electrical balance (eq)  =   1.974e-16
 Percent error, 100*(Cat-|An|)/(Cat+|An|)  =   0.00
                               Iterations  =   9
                                  Total H  = 1.110124e+02
                                  Total O  = 5.550622e+01

----------------------------Distribution of species----------------------------

                                               Log       Log       Log    mole V
   Species          Molality    Activity  Molality  Activity     Gamma   cm³/mol

   H+              1.317e-07   1.109e-07    -6.880    -6.955    -0.074      0.00
   OH-             1.150e-07   9.113e-08    -6.939    -7.040    -0.101     -3.83
   H2O             5.551e+01   9.989e-01     1.744    -0.000     0.000     18.07
Ca            2.200e-02
   Ca+2            2.200e-02   9.654e-03    -1.658    -2.015    -0.358    -17.56
   CaOH+           1.792e-08   1.443e-08    -7.747    -7.841    -0.094     (0)  
Cl            4.400e-02
   Cl-             4.400e-02   3.502e-02    -1.357    -1.456    -0.099     18.28
   HCl             1.254e-09   1.338e-09    -8.902    -8.873     0.028     20.36
H(0)          2.850e-17
   H2              1.425e-17   1.448e-17   -16.846   -16.839     0.007     14.99
O(0)          0.000e+00
   O2              0.000e+00   0.000e+00   -58.692   -58.685     0.007     30.40

------------------------------Saturation indices-------------------------------

  Phase               SI** log IAP   log K(298 K,   0 atm)

  H2(g)           -13.74    -16.84   -3.10  H2
  H2O(g)           -1.50     -0.00    1.50  H2O
  O2(g)           -55.79    -58.69   -2.89  O2

**For a gas, SI = log10(fugacity). Fugacity = pressure * phi / 1 atm.
  For ideal gases, phi = 1.

Reaction step 5.

Using solution 1.	
Using temperature 1.	
Using pressure 1.	
Using reaction 1.	

Reaction 1.	

	  2.235e-02 moles of the following reaction have been added:

	                 Relative
	Reactant            moles

	CaCl2                1.00000

	                 Relative
	Element             moles
	Ca                   1.00000
	Cl                   2.00000

-----------------------------Solution composition------------------------------

	Elements           Molality       Moles

	Ca                2.235e-02   2.235e-02
	Cl                4.470e-02   4.470e-02

----------------------------Description of solution----------------------------

                                       pH  =   6.954      Charge balance
                                       pe  =  -0.086      Adjusted to redox equilibrium
      Specific Conductance (µS/cm,  25°C)  = 4932
                          Density (g/cm³)  =   0.99905
                               Volume (L)  =   1.00343
                        Viscosity (mPa s)  =   0.89903
                        Activity of water  =   0.999
                 Ionic strength (mol/kgw)  =   6.705e-02
                       Mass of water (kg)  =   1.000e+00
                 Total alkalinity (eq/kg)  =   2.496e-17
                         Temperature (°C)  =  25.00
                           Pressure (atm)  =  0.03
                  Electrical balance (eq)  =   1.846e-16
 Percent error, 100*(Cat-|An|)/(Cat+|An|)  =   0.00
                               Iterations  =   9
                                  Total H  = 1.110124e+02
                                  Total O  = 5.550622e+01

----------------------------Distribution of species----------------------------

                                               Log       Log       Log    mole V
   Species          Molality    Activity  Molality  Activity     Gamma   cm³/mol

   H+              1.319e-07   1.111e-07    -6.880    -6.954    -0.075      0.00
   OH-             1.151e-07   9.104e-08    -6.939    -7.041    -0.102     -3.82
   H2O             5.551e+01   9.989e-01     1.744    -0.000     0.000     18.07
Ca            2.235e-02
   Ca+2            2.235e-02   9.765e-03    -1.651    -2.010    -0.360    -17.55
   CaOH+           1.813e-08   1.458e-08    -7.742    -7.836    -0.095     (0)  
Cl            4.470e-02
   Cl-             4.470e-02   3.552e-02    -1.350    -1.449    -0.100     18.29
   HCl             1.273e-09   1.359e-09    -8.895    -8.867     0.029     20.36
H(0)          2.548e-17
   H2              1.274e-17   1.295e-17   -16.895   -16.888     0.007     14.99
O(0)          0.000e+00
   O2              0.000e+00   0.000e+00   -58.595   -58.588     0.007     30.40

------------------------------Saturation indices-------------------------------

  Phase               SI** log IAP   log K(298 K,   0 atm)

  H2(g)           -13.79    -16.89   -3.10  H2
  H2O(g)           -1.50     -0.00    1.50  H2O
  O2(g)           -55.70    -58.59   -2.89  O2

**For a gas, SI = log10(fugacity). Fugacity = pressure * phi / 1 atm.
  For ideal gases, phi = 1.

Reaction step 6.

Using solution 1.	
Using temperature 1.	
Using pressure 1.	
Using reaction 1.	

Reaction 1.	

	  2.390e-02 moles of the following reaction have been added:

	                 Relative
	Reactant            moles

	CaCl2                1.00000

	                 Relative
	Element             moles
	Ca                   1.00000
	Cl                   2.00000

-----------------------------Solution composition------------------------------

	Elements           Molality       Moles

	Ca                2.390e-02   2.390e-02
	Cl                4.780e-02   4.780e-02

----------------------------Description of solution----------------------------

                                       pH  =   6.953      Charge balance
                                       pe  =  -0.136      Adjusted to redox equilibrium
      Specific Conductance (µS/cm,  25°C)  = 5248
                          Density (g/cm³)  =   0.99919
                               Volume (L)  =   1.00347
                        Viscosity (mPa s)  =   0.89955
                        Activity of water  =   0.999
                 Ionic strength (mol/kgw)  =   7.170e-02
                       Mass of water (kg)  =   1.000e+00
                 Total alkalinity (eq/kg)  =   3.179e-17
                         Temperature (°C)  =  25.00
                           Pressure (atm)  =  0.03
                  Electrical balance (eq)  =   3.816e-16
 Percent error, 100*(Cat-|An|)/(Cat+|An|)  =   0.00
                               Iterations  =   9
                                  Total H  = 1.110124e+02
                                  Total O  = 5.550622e+01

----------------------------Distribution of species----------------------------

                                               Log       Log       Log    mole V
   Species          Molality    Activity  Molality  Activity     Gamma   cm³/mol

   H+              1.329e-07   1.115e-07    -6.876    -6.953    -0.076      0.00
   OH-             1.153e-07   9.063e-08    -6.938    -7.043    -0.104     -3.81
   H2O             5.551e+01   9.988e-01     1.744    -0.001     0.000     18.07
Ca            2.390e-02
   Ca+2            2.390e-02   1.025e-02    -1.622    -1.989    -0.368    -17.53
   CaOH+           1.904e-08   1.523e-08    -7.720    -7.817    -0.097     (0)  
Cl            4.780e-02
   Cl-             4.780e-02   3.777e-02    -1.321    -1.423    -0.102     18.29
   HCl             1.353e-09   1.451e-09    -8.869    -8.838     0.031     20.36
H(0)          3.242e-17
   H2              1.621e-17   1.649e-17   -16.790   -16.783     0.008     14.99
O(0)          0.000e+00
   O2              0.000e+00   0.000e+00   -58.805   -58.798     0.007     30.40

------------------------------Saturation indices-------------------------------

  Phase               SI** log IAP   log K(298 K,   0 atm)

  H2(g)           -13.68    -16.78   -3.10  H2
  H2O(g)           -1.50     -0.00    1.50  H2O
  O2(g)           -55.91    -58.80   -2.89  O2

**For a gas, SI = log10(fugacity). Fugacity = pressure * phi / 1 atm.
  For ideal gases, phi = 1.

Reaction step 7.

Using solution 1.	
Using temperature 1.	
Using pressure 1.	
Using reaction 1.	

Reaction 1.	

	  3.287e-02 moles of the following reaction have been added:

	                 Relative
	Reactant            moles

	CaCl2                1.00000

	                 Relative
	Element             moles
	Ca                   1.00000
	Cl                   2.00000

-----------------------------Solution composition------------------------------

	Elements           Molality       Moles

	Ca                3.287e-02   3.287e-02
	Cl                6.574e-02   6.574e-02

----------------------------Description of solution----------------------------

                                       pH  =   6.943      Charge balance
                                       pe  =  -0.140      Adjusted to redox equilibrium
      Specific Conductance (µS/cm,  25°C)  = 7041
                          Density (g/cm³)  =   1.00001
                               Volume (L)  =   1.00364
                        Viscosity (mPa s)  =   0.90250
                        Activity of water  =   0.998
                 Ionic strength (mol/kgw)  =   9.861e-02
                       Mass of water (kg)  =   1.000e+00
                 Total alkalinity (eq/kg)  =   3.437e-17
                         Temperature (°C)  =  25.00
                           Pressure (atm)  =  0.03
                  Electrical balance (eq)  =   1.651e-15
 Percent error, 100*(Cat-|An|)/(Cat+|An|)  =   0.00
                               Iterations  =  14
                                  Total H  = 1.110124e+02
                                  Total O  = 5.550622e+01

----------------------------Distribution of species----------------------------

                                               Log       Log       Log    mole V
   Species          Molality    Activity  Molality  Activity     Gamma   cm³/mol

   H+              1.382e-07   1.141e-07    -6.859    -6.943    -0.083      0.00
   OH-             1.161e-07   8.852e-08    -6.935    -7.053    -0.118     -3.74
   H2O             5.551e+01   9.983e-01     1.744    -0.001     0.000     18.07
Ca            3.287e-02
   Ca+2            3.287e-02   1.289e-02    -1.483    -1.890    -0.406    -17.45
   CaOH+           2.393e-08   1.872e-08    -7.621    -7.728    -0.107     (0)  
Cl            6.574e-02
   Cl-             6.574e-02   5.046e-02    -1.182    -1.297    -0.115     18.34
   HCl             1.802e-09   1.984e-09    -8.744    -8.702     0.042     20.36
H(0)          3.438e-17
   H2              1.719e-17   1.760e-17   -16.765   -16.754     0.010     14.99
O(0)          0.000e+00
   O2              0.000e+00   0.000e+00   -58.865   -58.855     0.010     30.40

------------------------------Saturation indices-------------------------------

  Phase               SI** log IAP   log K(298 K,   0 atm)

  H2(g)           -13.66    -16.75   -3.10  H2
  H2O(g)           -1.50     -0.00    1.50  H2O
  O2(g)           -55.96    -58.86   -2.89  O2

**For a gas, SI = log10(fugacity). Fugacity = pressure * phi / 1 atm.
  For ideal gases, phi = 1.

Reaction step 8.

Using solution 1.	
Using temperature 1.	
Using pressure 1.	
Using reaction 1.	

Reaction 1.	

	  3.340e-02 moles of the following reaction have been added:

	                 Relative
	Reactant            moles

	CaCl2                1.00000

	                 Relative
	Element             moles
	Ca                   1.00000
	Cl                   2.00000

-----------------------------Solution composition------------------------------

	Elements           Molality       Moles

	Ca                3.340e-02   3.340e-02
	Cl                6.680e-02   6.680e-02

----------------------------Description of solution----------------------------

                                       pH  =   6.942      Charge balance
                                       pe  =  -0.075      Adjusted to redox equilibrium
      Specific Conductance (µS/cm,  25°C)  = 7145
                          Density (g/cm³)  =   1.00005
                               Volume (L)  =   1.00365
                        Viscosity (mPa s)  =   0.90268
                        Activity of water  =   0.998
                 Ionic strength (mol/kgw)  =   1.002e-01
                       Mass of water (kg)  =   1.000e+00
                 Total alkalinity (eq/kg)  =   2.229e-17
                         Temperature (°C)  =  25.00
                           Pressure (atm)  =  0.03
                  Electrical balance (eq)  =   2.297e-14
 Percent error, 100*(Cat-|An|)/(Cat+|An|)  =   0.00
                               Iterations  =  11
                                  Total H  = 1.110124e+02
                                  Total O  = 5.550622e+01

----------------------------Distribution of species----------------------------

                                               Log       Log       Log    mole V
   Species          Molality    Activity  Molality  Activity     Gamma   cm³/mol

   H+              1.385e-07   1.143e-07    -6.859    -6.942    -0.083      0.00
   OH-             1.161e-07   8.841e-08    -6.935    -7.054    -0.118     -3.73
   H2O             5.551e+01   9.983e-01     1.744    -0.001     0.000     18.07
Ca            3.340e-02
   Ca+2            3.340e-02   1.304e-02    -1.476    -1.885    -0.408    -17.44
   CaOH+           2.421e-08   1.891e-08    -7.616    -7.723    -0.107     (0)  
Cl            6.680e-02
   Cl-             6.680e-02   5.120e-02    -1.175    -1.291    -0.116     18.34
   HCl             1.827e-09   2.016e-09    -8.738    -8.696     0.043     20.36
H(0)          2.552e-17
   H2              1.276e-17   1.307e-17   -16.894   -16.884     0.011     14.99
O(0)          0.000e+00
   O2              0.000e+00   0.000e+00   -58.607   -58.597     0.010     30.40

------------------------------Saturation indices-------------------------------

  Phase               SI** log IAP   log K(298 K,   0 atm)

  H2(g)           -13.78    -16.88   -3.10  H2
  H2O(g)           -1.50     -0.00    1.50  H2O
  O2(g)           -55.70    -58.60   -2.89  O2

**For a gas, SI = log10(fugacity). Fugacity = pressure * phi / 1 atm.
  For ideal gases, phi = 1.

Reaction step 9.

Using solution 1.	
Using temperature 1.	
Using pressure 1.	
Using reaction 1.	

Reaction 1.	

	  3.700e-02 moles of the following reaction have been added:

	                 Relative
	Reactant            moles

	CaCl2                1.00000

	                 Relative
	Element             moles
	Ca                   1.00000
	Cl                   2.00000

-----------------------------Solution composition------------------------------

	Elements           Molality       Moles

	Ca                3.700e-02   3.700e-02
	Cl                7.400e-02   7.400e-02

----------------------------Description of solution----------------------------

                                       pH  =   6.938      Charge balance
                                       pe  =  -0.214      Adjusted to redox equilibrium
      Specific Conductance (µS/cm,  25°C)  = 7849
                          Density (g/cm³)  =   1.00038
                               Volume (L)  =   1.00372
                        Viscosity (mPa s)  =   0.90384
                        Activity of water  =   0.998
                 Ionic strength (mol/kgw)  =   1.110e-01
                       Mass of water (kg)  =   1.000e+00
                 Total alkalinity (eq/kg)  =   6.940e-17
                         Temperature (°C)  =  25.00
                           Pressure (atm)  =  0.03
                  Electrical balance (eq)  =   8.981e-11
 Percent error, 100*(Cat-|An|)/(Cat+|An|)  =   0.00
                               Iterations  =   9
                                  Total H  = 1.110124e+02
                                  Total O  = 5.550622e+01

----------------------------Distribution of species----------------------------

                                               Log       Log       Log    mole V
   Species          Molality    Activity  Molality  Activity     Gamma   cm³/mol

   H+              1.403e-07   1.152e-07    -6.853    -6.938    -0.086      0.00
   OH-             1.163e-07   8.767e-08    -6.934    -7.057    -0.123     -3.71
   H2O             5.551e+01   9.981e-01     1.744    -0.001     0.000     18.07
Ca            3.700e-02
   Ca+2            3.700e-02   1.403e-02    -1.432    -1.853    -0.421    -17.41
   CaOH+           2.602e-08   2.017e-08    -7.585    -7.695    -0.110     (0)  
Cl            7.400e-02
   Cl-             7.400e-02   5.617e-02    -1.131    -1.250    -0.120     18.35
   HCl             2.000e-09   2.230e-09    -8.699    -8.652     0.047     20.36
H(0)          4.900e-17
   H2              2.450e-17   2.517e-17   -16.611   -16.599     0.012     14.99
O(0)          0.000e+00
   O2              0.000e+00   0.000e+00   -59.177   -59.166     0.011     30.40

------------------------------Saturation indices-------------------------------

  Phase               SI** log IAP   log K(298 K,   0 atm)

  H2(g)           -13.50    -16.60   -3.10  H2
  H2O(g)           -1.50     -0.00    1.50  H2O
  O2(g)           -56.27    -59.17   -2.89  O2

**For a gas, SI = log10(fugacity). Fugacity = pressure * phi / 1 atm.
  For ideal gases, phi = 1.

Reaction step 10.

Using solution 1.	
Using temperature 1.	
Using pressure 1.	
Using reaction 1.	

Reaction 1.	

	  4.500e-02 moles of the following reaction have been added:

	                 Relative
	Reactant            moles

	CaCl2                1.00000

	                 Relative
	Element             moles
	Ca                   1.00000
	Cl                   2.00000

-----------------------------Solution composition------------------------------

	Elements           Molality       Moles

	Ca                4.500e-02   4.500e-02
	Cl                9.000e-02   9.000e-02

----------------------------Description of solution----------------------------

                                       pH  =   6.931      Charge balance
                                       pe  =  -0.023      Adjusted to redox equilibrium
      Specific Conductance (µS/cm,  25°C)  = 9389
                          Density (g/cm³)  =   1.00111
                               Volume (L)  =   1.00388
                        Viscosity (mPa s)  =   0.90639
                        Activity of water  =   0.998
                 Ionic strength (mol/kgw)  =   1.350e-01
                       Mass of water (kg)  =   1.000e+00
                 Total alkalinity (eq/kg)  =   2.071e-17
                         Temperature (°C)  =  25.00
                           Pressure (atm)  =  0.03
                  Electrical balance (eq)  =   1.919e-15
 Percent error, 100*(Cat-|An|)/(Cat+|An|)  =   0.00
                               Iterations  =  12
                                  Total H  = 1.110124e+02
                                  Total O  = 5.550622e+01

----------------------------Distribution of species----------------------------

                                               Log       Log       Log    mole V
   Species          Molality    Activity  Molality  Activity     Gamma   cm³/mol

   H+              1.441e-07   1.172e-07    -6.841    -6.931    -0.090      0.00
   OH-             1.167e-07   8.616e-08    -6.933    -7.065    -0.132     -3.65
   H2O             5.551e+01   9.977e-01     1.744    -0.001     0.000     18.07
Ca            4.500e-02
   Ca+2            4.500e-02   1.614e-02    -1.347    -1.792    -0.445    -17.35
   CaOH+           2.982e-08   2.281e-08    -7.526    -7.642    -0.116     (0)  
Cl            9.000e-02
   Cl-             9.000e-02   6.702e-02    -1.046    -1.174    -0.128     18.39
   HCl             2.371e-09   2.706e-09    -8.625    -8.568     0.057     20.36
H(0)          2.089e-17
   H2              1.045e-17   1.079e-17   -16.981   -16.967     0.014     14.99
O(0)          0.000e+00
   O2              0.000e+00   0.000e+00   -58.444   -58.431     0.014     30.40

------------------------------Saturation indices-------------------------------

  Phase               SI** log IAP   log K(298 K,   0 atm)

  H2(g)           -13.87    -16.97   -3.10  H2
  H2O(g)           -1.50     -0.00    1.50  H2O
  O2(g)           -55.54    -58.43   -2.89  O2

**For a gas, SI = log10(fugacity). Fugacity = pressure * phi / 1 atm.
  For ideal gases, phi = 1.

Reaction step 11.

Using solution 1.	
Using temperature 1.	
Using pressure 1.	
Using reaction 1.	

Reaction 1.	

	  4.690e-02 moles of the following reaction have been added:

	                 Relative
	Reactant            moles

	CaCl2                1.00000

	                 Relative
	Element             moles
	Ca                   1.00000
	Cl                   2.00000

-----------------------------Solution composition------------------------------

	Elements           Molality       Moles

	Ca                4.690e-02   4.690e-02
	Cl                9.380e-02   9.380e-02

----------------------------Description of solution----------------------------

                                       pH  =   6.929      Charge balance
                                       pe  =  -0.099      Adjusted to redox equilibrium
      Specific Conductance (µS/cm,  25°C)  = 9750
                          Density (g/cm³)  =   1.00128
                               Volume (L)  =   1.00392
                        Viscosity (mPa s)  =   0.90699
                        Activity of water  =   0.998
                 Ionic strength (mol/kgw)  =   1.407e-01
                       Mass of water (kg)  =   1.000e+00
                 Total alkalinity (eq/kg)  =   2.959e-17
                         Temperature (°C)  =  25.00
                           Pressure (atm)  =  0.03
                  Electrical balance (eq)  =   5.018e-15
 Percent error, 100*(Cat-|An|)/(Cat+|An|)  =   0.00
                               Iterations  =  10
                                  Total H  = 1.110124e+02
                                  Total O  = 5.550622e+01

----------------------------Distribution of species----------------------------

                                               Log       Log       Log    mole V
   Species          Molality    Activity  Molality  Activity     Gamma   cm³/mol

   H+              1.450e-07   1.176e-07    -6.839    -6.929    -0.091      0.00
   OH-             1.168e-07   8.583e-08    -6.933    -7.066    -0.134     -3.63
   H2O             5.551e+01   9.976e-01     1.744    -0.001     0.000     18.07
Ca            4.690e-02
   Ca+2            4.690e-02   1.663e-02    -1.329    -1.779    -0.450    -17.34
   CaOH+           3.068e-08   2.340e-08    -7.513    -7.631    -0.118     (0)  
Cl            9.380e-02
   Cl-             9.380e-02   6.957e-02    -1.028    -1.158    -0.130     18.39
   HCl             2.456e-09   2.819e-09    -8.610    -8.550     0.060     20.36
H(0)          2.987e-17
   H2              1.493e-17   1.545e-17   -16.826   -16.811     0.015     14.99
O(0)          0.000e+00
   O2              0.000e+00   0.000e+00   -58.757   -58.743     0.014     30.40

------------------------------Saturation indices-------------------------------

  Phase               SI** log IAP   log K(298 K,   0 atm)

  H2(g)           -13.71    -16.81   -3.10  H2
  H2O(g)           -1.50     -0.00    1.50  H2O
  O2(g)           -55.85    -58.74   -2.89  O2

**For a gas, SI = log10(fugacity). Fugacity = pressure * phi / 1 atm.
  For ideal gases, phi = 1.

Reaction step 12.

Using solution 1.	
Using temperature 1.	
Using pressure 1.	
Using reaction 1.	

Reaction 1.	

	  5.000e-02 moles of the following reaction have been added:

	                 Relative
	Reactant            moles

	CaCl2                1.00000

	                 Relative
	Element             moles
	Ca                   1.00000
	Cl                   2.00000

-----------------------------Solution composition------------------------------

	Elements           Molality       Moles

	Ca                5.000e-02   5.000e-02
	Cl                1.000e-01   1.000e-01

----------------------------Description of solution----------------------------

                                       pH  =   6.927      Charge balance
                                       pe  =  -0.054      Adjusted to redox equilibrium
      Specific Conductance (µS/cm,  25°C)  = 10336
                          Density (g/cm³)  =   1.00156
                               Volume (L)  =   1.00398
                        Viscosity (mPa s)  =   0.90797
                        Activity of water  =   0.997
                 Ionic strength (mol/kgw)  =   1.500e-01
                       Mass of water (kg)  =   1.000e+00
                 Total alkalinity (eq/kg)  =   2.403e-17
                         Temperature (°C)  =  25.00
                           Pressure (atm)  =  0.03
                  Electrical balance (eq)  =   6.270e-14
 Percent error, 100*(Cat-|An|)/(Cat+|An|)  =   0.00
                               Iterations  =  12
                                  Total H  = 1.110124e+02
                                  Total O  = 5.550622e+01

----------------------------Distribution of species----------------------------

                                               Log       Log       Log    mole V
   Species          Molality    Activity  Molality  Activity     Gamma   cm³/mol

   H+              1.463e-07   1.184e-07    -6.835    -6.927    -0.092      0.00
   OH-             1.169e-07   8.530e-08    -6.932    -7.069    -0.137     -3.61
   H2O             5.551e+01   9.974e-01     1.744    -0.001     0.000     18.07
Ca            5.000e-02
   Ca+2            5.000e-02   1.741e-02    -1.301    -1.759    -0.458    -17.32
   CaOH+           3.206e-08   2.435e-08    -7.494    -7.614    -0.119     (0)  
Cl            1.000e-01
   Cl-             1.000e-01   7.369e-02    -1.000    -1.133    -0.133     18.40
   HCl             2.594e-09   3.005e-09    -8.586    -8.522     0.064     20.36
H(0)          2.458e-17
   H2              1.229e-17   1.274e-17   -16.911   -16.895     0.016     14.99
O(0)          0.000e+00
   O2              0.000e+00   0.000e+00   -58.590   -58.575     0.015     30.40

------------------------------Saturation indices-------------------------------

  Phase               SI** log IAP   log K(298 K,   0 atm)

  H2(g)           -13.80    -16.89   -3.10  H2
  H2O(g)           -1.50     -0.00    1.50  H2O
  O2(g)           -55.68    -58.58   -2.89  O2

**For a gas, SI = log10(fugacity). Fugacity = pressure * phi / 1 atm.
  For ideal gases, phi = 1.

Reaction step 13.

Using solution 1.	
Using temperature 1.	
Using pressure 1.	
Using reaction 1.	

Reaction 1.	

	  5.001e-02 moles of the following reaction have been added:

	                 Relative
	Reactant            moles

	CaCl2                1.00000

	                 Relative
	Element             moles
	Ca                   1.00000
	Cl                   2.00000

-----------------------------Solution composition------------------------------

	Elements           Molality       Moles

	Ca                5.001e-02   5.001e-02
	Cl                1.000e-01   1.000e-01

----------------------------Description of solution----------------------------

                                       pH  =   6.927      Charge balance
                                       pe  =  -0.113      Adjusted to redox equilibrium
      Specific Conductance (µS/cm,  25°C)  = 10338
                          Density (g/cm³)  =   1.00156
                               Volume (L)  =   1.00398
                        Viscosity (mPa s)  =   0.90797
                        Activity of water  =   0.997
                 Ionic strength (mol/kgw)  =   1.500e-01
                       Mass of water (kg)  =   1.000e+00
                 Total alkalinity (eq/kg)  =   3.236e-17
                         Temperature (°C)  =  25.00
                           Pressure (atm)  =  0.03
                  Electrical balance (eq)  =   4.133e-13
 Percent error, 100*(Cat-|An|)/(Cat+|An|)  =   0.00
                               Iterations  =  11
                                  Total H  = 1.110124e+02
                                  Total O  = 5.550622e+01

----------------------------Distribution of species----------------------------

                                               Log       Log       Log    mole V
   Species          Molality    Activity  Molality  Activity     Gamma   cm³/mol

   H+              1.463e-07   1.184e-07    -6.835    -6.927    -0.092      0.00
   OH-             1.169e-07   8.530e-08    -6.932    -7.069    -0.137     -3.61
   H2O             5.551e+01   9.974e-01     1.744    -0.001     0.000     18.07
Ca            5.001e-02
   Ca+2            5.001e-02   1.741e-02    -1.301    -1.759    -0.458    -17.32
   CaOH+           3.206e-08   2.435e-08    -7.494    -7.613    -0.119     (0)  
Cl            1.000e-01
   Cl-             1.000e-01   7.370e-02    -1.000    -1.133    -0.133     18.40
   HCl             2.594e-09   3.005e-09    -8.586    -8.522     0.064     20.36
H(0)          3.224e-17
   H2              1.612e-17   1.672e-17   -16.793   -16.777     0.016     14.99
O(0)          0.000e+00
   O2              0.000e+00   0.000e+00   -58.826   -58.811     0.015     30.40

------------------------------Saturation indices-------------------------------

  Phase               SI** log IAP   log K(298 K,   0 atm)

  H2(g)           -13.68    -16.78   -3.10  H2
  H2O(g)           -1.50     -0.00    1.50  H2O
  O2(g)           -55.92    -58.81   -2.89  O2

**For a gas, SI = log10(fugacity). Fugacity = pressure * phi / 1 atm.
  For ideal gases, phi = 1.

Reaction step 14.

Using solution 1.	
Using temperature 1.	
Using pressure 1.	
Using reaction 1.	

Reaction 1.	

	  5.050e-02 moles of the following reaction have been added:

	                 Relative
	Reactant            moles

	CaCl2                1.00000

	                 Relative
	Element             moles
	Ca                   1.00000
	Cl                   2.00000

-----------------------------Solution composition------------------------------

	Elements           Molality       Moles

	Ca                5.050e-02   5.050e-02
	Cl                1.010e-01   1.010e-01

----------------------------Description of solution----------------------------

                                       pH  =   6.926      Charge balance
                                       pe  =  -0.097      Adjusted to redox equilibrium
      Specific Conductance (µS/cm,  25°C)  = 10431
                          Density (g/cm³)  =   1.00160
                               Volume (L)  =   1.00399
                        Viscosity (mPa s)  =   0.90813
                        Activity of water  =   0.997
                 Ionic strength (mol/kgw)  =   1.515e-01
                       Mass of water (kg)  =   1.000e+00
                 Total alkalinity (eq/kg)  =   2.829e-17
                         Temperature (°C)  =  25.00
                           Pressure (atm)  =  0.03
                  Electrical balance (eq)  =   7.092e-17
 Percent error, 100*(Cat-|An|)/(Cat+|An|)  =   0.00
                               Iterations  =  12
                                  Total H  = 1.110124e+02
                                  Total O  = 5.550622e+01

----------------------------Distribution of species----------------------------

                                               Log       Log       Log    mole V
   Species          Molality    Activity  Molality  Activity     Gamma   cm³/mol

   H+              1.465e-07   1.185e-07    -6.834    -6.926    -0.092      0.00
   OH-             1.169e-07   8.522e-08    -6.932    -7.069    -0.137     -3.61
[...]

   OH-             1.737e-06   1.064e-06    -5.760    -5.973    -0.213     -6.77
   H+              1.720e-06   1.273e-06    -5.765    -5.895    -0.130      0.00
   H2O             5.551e+01   9.948e-01     1.744    -0.002     0.000     19.22
Ca            1.014e-01
   Ca+2            1.014e-01   2.137e-02    -0.994    -1.670    -0.676    -18.66
   CaOH+           4.104e-09   2.771e-09    -8.387    -8.557    -0.170     (0)  
Cl            2.028e-01
   Cl-             2.028e-01   1.266e-01    -0.693    -0.897    -0.205     15.07
   HCl             2.190e-08   2.950e-08    -7.660    -7.530     0.129     23.55
H(0)          1.437e-26
   H2              7.186e-27   7.734e-27   -26.144   -26.112     0.032     19.31
O(0)          3.913e-17
   O2              1.957e-17   2.099e-17   -16.708   -16.678     0.030     34.91

------------------------------Saturation indices-------------------------------

  Phase               SI** log IAP   log K(400 K,   2 atm)

  H2(g)           -23.09    -26.11   -3.02  H2
  H2O(g)            0.38     -0.00   -0.38  H2O
  O2(g)           -13.59    -16.68   -3.09  O2

**For a gas, SI = log10(fugacity). Fugacity = pressure * phi / 1 atm.
  For ideal gases, phi = 1.

Reaction step 4.

Using solution 1.	
Using temperature 1.	
Using pressure 1.	
Using reaction 1.	

Reaction 1.	

	  2.722e-01 moles of the following reaction have been added:

	                 Relative
	Reactant            moles

	CaCl2                1.00000

	                 Relative
	Element             moles
	Ca                   1.00000
	Cl                   2.00000

-----------------------------Solution composition------------------------------

	Elements           Molality       Moles

	Ca                2.722e-01   2.722e-01
	Cl                5.444e-01   5.444e-01

----------------------------Description of solution----------------------------

                                       pH  =   5.876      Charge balance
                                       pe  =   5.456      Adjusted to redox equilibrium
      Specific Conductance (µS/cm, 127°C)  = 142509
                          Density (g/cm³)  =   0.96222
                               Volume (L)  =   1.07066
                        Viscosity (mPa s)  =   0.24510
                        Activity of water  =   0.986
                 Ionic strength (mol/kgw)  =   8.166e-01
                       Mass of water (kg)  =   1.000e+00
                 Total alkalinity (eq/kg)  =   6.663e-17
                         Temperature (°C)  = 127.00
                           Pressure (atm)  =  2.43
                  Electrical balance (eq)  =   1.537e-13
 Percent error, 100*(Cat-|An|)/(Cat+|An|)  =   0.00
                               Iterations  =   7
                                  Total H  = 1.110124e+02
                                  Total O  = 5.550622e+01

----------------------------Distribution of species----------------------------

                                               Log       Log       Log    mole V
   Species          Molality    Activity  Molality  Activity     Gamma   cm³/mol

   OH-             1.913e-06   1.010e-06    -5.718    -5.996    -0.278     -5.23
   H+              1.889e-06   1.330e-06    -5.724    -5.876    -0.152      0.00
   H2O             5.551e+01   9.861e-01     1.744    -0.006     0.000     19.22
Ca            2.722e-01
   Ca+2            2.722e-01   4.603e-02    -0.565    -1.337    -0.772    -17.78
   CaOH+           7.967e-09   5.663e-09    -8.099    -8.247    -0.148     (0)  
Cl            5.444e-01
   Cl-             5.444e-01   3.003e-01    -0.264    -0.522    -0.258     15.94
   HCl             3.283e-08   7.309e-08    -7.484    -7.136     0.348     23.55
H(0)          1.179e-26
   H2              5.897e-27   7.184e-27   -26.229   -26.144     0.086     19.31
O(0)          3.961e-17
   O2              1.980e-17   2.390e-17   -16.703   -16.622     0.082     34.91

------------------------------Saturation indices-------------------------------

  Phase               SI** log IAP   log K(400 K,   2 atm)

  H2(g)           -23.12    -26.14   -3.02  H2
  H2O(g)            0.37     -0.01   -0.38  H2O
  O2(g)           -13.53    -16.62   -3.09  O2

**For a gas, SI = log10(fugacity). Fugacity = pressure * phi / 1 atm.
  For ideal gases, phi = 1.

Reaction step 5.

Using solution 1.	
Using temperature 1.	
Using pressure 1.	
Using reaction 1.	

Reaction 1.	

	  5.246e-01 moles of the following reaction have been added:

	                 Relative
	Reactant            moles

	CaCl2                1.00000

	                 Relative
	Element             moles
	Ca                   1.00000
	Cl                   2.00000

-----------------------------Solution composition------------------------------

	Elements           Molality       Moles

	Ca                5.246e-01   5.246e-01
	Cl                1.049e+00   1.049e+00

----------------------------Description of solution----------------------------

                                       pH  =   5.863      Charge balance
                                       pe  =   5.401      Adjusted to redox equilibrium
      Specific Conductance (µS/cm, 127°C)  = 245890
                          Density (g/cm³)  =   0.98402
                               Volume (L)  =   1.07541
                        Viscosity (mPa s)  =   0.26710
                        Activity of water  =   0.973
                 Ionic strength (mol/kgw)  =   1.574e+00
                       Mass of water (kg)  =   1.000e+00
                 Total alkalinity (eq/kg)  =   1.610e-16
                         Temperature (°C)  = 127.00
                           Pressure (atm)  =  2.43
                  Electrical balance (eq)  =   1.470e-13
 Percent error, 100*(Cat-|An|)/(Cat+|An|)  =   0.00
                               Iterations  =   7
                                  Total H  = 1.110124e+02
                                  Total O  = 5.550622e+01

----------------------------Distribution of species----------------------------

                                               Log       Log       Log    mole V
   Species          Molality    Activity  Molality  Activity     Gamma   cm³/mol

   OH-             2.019e-06   9.662e-07    -5.695    -6.015    -0.320     -3.44
   H+              2.003e-06   1.372e-06    -5.698    -5.863    -0.164      0.00
   H2O             5.551e+01   9.732e-01     1.744    -0.012     0.000     19.22
Ca            5.246e-01
   Ca+2            5.246e-01   9.169e-02    -0.280    -1.038    -0.758    -17.14
   CaOH+           1.224e-08   1.079e-08    -7.912    -7.967    -0.054     (0)  
Cl            1.049e+00
   Cl-             1.049e+00   5.426e-01     0.021    -0.266    -0.286     16.75
   HCl             2.914e-08   1.362e-07    -7.536    -6.866     0.670     23.55
H(0)          1.349e-26
   H2              6.745e-27   9.868e-27   -26.171   -26.006     0.165     19.31
O(0)          1.717e-17
   O2              8.587e-18   1.234e-17   -17.066   -16.909     0.157     34.91

------------------------------Saturation indices-------------------------------

  Phase               SI** log IAP   log K(400 K,   2 atm)

  H2(g)           -22.98    -26.01   -3.02  H2
  H2O(g)            0.37     -0.01   -0.38  H2O
  O2(g)           -13.82    -16.91   -3.09  O2

**For a gas, SI = log10(fugacity). Fugacity = pressure * phi / 1 atm.
  For ideal gases, phi = 1.

Reaction step 6.

Using solution 1.	
Using temperature 1.	
Using pressure 1.	
Using reaction 1.	

Reaction 1.	

	  1.024e+00 moles of the following reaction have been added:

	                 Relative
	Reactant            moles

	CaCl2                1.00000

	                 Relative
	Element             moles
	Ca                   1.00000
	Cl                   2.00000

-----------------------------Solution composition------------------------------

	Elements           Molality       Moles

	Ca                1.024e+00   1.024e+00
	Cl                2.048e+00   2.048e+00

----------------------------Description of solution----------------------------

                                       pH  =   5.851      Charge balance
                                       pe  =   5.872      Adjusted to redox equilibrium
      Specific Conductance (µS/cm, 127°C)  = 405812
                          Density (g/cm³)  =   1.02496
                               Volume (L)  =   1.08653
                        Viscosity (mPa s)  =   0.31058
                        Activity of water  =   0.948
                 Ionic strength (mol/kgw)  =   3.072e+00
                       Mass of water (kg)  =   1.000e+00
                 Total alkalinity (eq/kg)  =   3.255e-16
                         Temperature (°C)  = 127.00
                           Pressure (atm)  =  2.43
                  Electrical balance (eq)  =   8.385e-09
 Percent error, 100*(Cat-|An|)/(Cat+|An|)  =   0.00
                               Iterations  =   6
                                  Total H  = 1.110124e+02
                                  Total O  = 5.550622e+01

----------------------------Distribution of species----------------------------

                                               Log       Log       Log    mole V
   Species          Molality    Activity  Molality  Activity     Gamma   cm³/mol

   H+              2.106e-06   1.410e-06    -5.677    -5.851    -0.174      0.00
   OH-             2.101e-06   9.154e-07    -5.678    -6.038    -0.361     -0.42
   H2O             5.551e+01   9.478e-01     1.744    -0.023     0.000     19.22
Ca            1.024e+00
   Ca+2            1.024e+00   2.513e-01     0.010    -0.600    -0.610    -16.39
   CaOH+           1.836e-08   2.804e-08    -7.736    -7.552     0.184     (0)  
Cl            2.048e+00
   Cl-             2.048e+00   1.027e+00     0.311     0.012    -0.300     17.82
   HCl             1.306e-08   2.651e-07    -7.884    -6.577     1.307     23.55
H(0)          1.132e-27
   H2              5.658e-28   1.189e-27   -27.247   -26.925     0.323     19.31
O(0)          7.945e-16
   O2              3.973e-16   8.059e-16   -15.401   -15.094     0.307     34.91

------------------------------Saturation indices-------------------------------

  Phase               SI** log IAP   log K(400 K,   2 atm)

  H2(g)           -23.90    -26.92   -3.02  H2
  H2O(g)            0.36     -0.02   -0.38  H2O
  O2(g)           -12.00    -15.09   -3.09  O2

**For a gas, SI = log10(fugacity). Fugacity = pressure * phi / 1 atm.
  For ideal gases, phi = 1.

Reaction step 7.

Using solution 1.	
Using temperature 1.	
Using pressure 1.	
Using reaction 1.	

Reaction 1.	

	  3.197e+00 moles of the following reaction have been added:

	                 Relative
	Reactant            moles

	CaCl2                1.00000

	                 Relative
	Element             moles
	Ca                   1.00000
	Cl                   2.00000

-----------------------------Solution composition------------------------------

	Elements           Molality       Moles

	Ca                3.197e+00   3.197e+00
	Cl                6.394e+00   6.394e+00

----------------------------Description of solution----------------------------

                                       pH  =   5.853      Charge balance
                                       pe  =   5.578      Adjusted to redox equilibrium
      Specific Conductance (µS/cm, 127°C)  = 684786
                          Density (g/cm³)  =   1.17847
                               Volume (L)  =   1.14964
                        Viscosity (mPa s)  =   0.55541
                        Activity of water  =   0.837
                 Ionic strength (mol/kgw)  =   9.591e+00
                       Mass of water (kg)  =   1.000e+00
                 Total alkalinity (eq/kg)  =   3.157e-16
                         Temperature (°C)  = 127.00
                           Pressure (atm)  =  2.43
                  Electrical balance (eq)  =   5.903e-12
 Percent error, 100*(Cat-|An|)/(Cat+|An|)  =   0.00
                               Iterations  =  10
                                  Total H  = 1.110124e+02
                                  Total O  = 5.550622e+01

----------------------------Distribution of species----------------------------

                                               Log       Log       Log    mole V
   Species          Molality    Activity  Molality  Activity     Gamma   cm³/mol

   H+              2.158e-06   1.404e-06    -5.666    -5.853    -0.187      0.00
   OH-             2.129e-06   8.117e-07    -5.672    -6.091    -0.419     10.42
   H2O             5.551e+01   8.370e-01     1.744    -0.077     0.000     19.22
Ca            3.197e+00
   Ca+2            3.197e+00   6.859e+00     0.505     0.836     0.332    -14.41
   CaOH+           2.904e-08   6.789e-07    -7.537    -6.168     1.369     (0)  
Cl            6.394e+00
   Cl-             6.394e+00   3.648e+00     0.806     0.562    -0.244     20.16
   HCl             7.759e-11   9.371e-07   -10.110    -6.028     4.082     23.55
H(0)          8.977e-28
   H2              4.488e-28   4.562e-27   -27.348   -26.341     1.007     19.31
O(0)          9.382e-18
   O2              4.691e-18   4.270e-17   -17.329   -16.370     0.959     34.91

------------------------------Saturation indices-------------------------------

  Phase               SI** log IAP   log K(400 K,   2 atm)

  H2(g)           -23.32    -26.34   -3.02  H2
  H2O(g)            0.30     -0.08   -0.38  H2O
  O2(g)           -13.28    -16.37   -3.09  O2

**For a gas, SI = log10(fugacity). Fugacity = pressure * phi / 1 atm.
  For ideal gases, phi = 1.

Reaction step 8.

Using solution 1.	
Using temperature 1.	
Using pressure 1.	
Using reaction 1.	

Reaction 1.	

	  5.010e+00 moles of the following reaction have been added:

	                 Relative
	Reactant            moles

	CaCl2                1.00000

	                 Relative
	Element             moles
	Ca                   1.00000
	Cl                   2.00000

-----------------------------Solution composition------------------------------

	Elements           Molality       Moles

	Ca                5.010e+00   5.010e+00
	Cl                1.002e+01   1.002e+01

----------------------------Description of solution----------------------------

                                       pH  =   5.871      Charge balance
                                       pe  =   6.813      Adjusted to redox equilibrium
      Specific Conductance (µS/cm, 127°C)  = 625554
                          Density (g/cm³)  =   1.28239
                               Volume (L)  =   1.21339
                        Viscosity (mPa s)  =   0.93460
                        Activity of water  =   0.744
                 Ionic strength (mol/kgw)  =   1.503e+01
                       Mass of water (kg)  =   1.000e+00
                 Total alkalinity (eq/kg)  =  -1.146e-15
                         Temperature (°C)  = 127.00
                           Pressure (atm)  =  2.43
                  Electrical balance (eq)  =  -1.208e-10
 Percent error, 100*(Cat-|An|)/(Cat+|An|)  =  -0.00
                               Iterations  =   9
                                  Total H  = 1.110124e+02
                                  Total O  = 5.550622e+01

----------------------------Distribution of species----------------------------

                                               Log       Log       Log    mole V
   Species          Molality    Activity  Molality  Activity     Gamma   cm³/mol

   H+              2.087e-06   1.347e-06    -5.680    -5.871    -0.190      0.00
   OH-             2.059e-06   7.524e-07    -5.686    -6.124    -0.437     18.52
   H2O             5.551e+01   7.445e-01     1.744    -0.128     0.000     19.22
Ca            5.010e+00
   Ca+2            5.010e+00   7.729e+01     0.700     1.888     1.188    -13.07
   CaOH+           2.847e-08   7.094e-06    -7.546    -5.149     2.396     (0)  
Cl            1.002e+01
   Cl-             1.002e+01   6.796e+00     1.001     0.832    -0.169     21.16
   HCl             6.717e-13   1.675e-06   -12.173    -5.776     6.397     23.55
H(0)          7.534e-31
   H2              3.767e-31   1.426e-29   -30.424   -28.846     1.578     19.31
O(0)          2.172e-13
   O2              1.086e-13   3.457e-12   -12.964   -11.461     1.503     34.91

------------------------------Saturation indices-------------------------------

  Phase               SI** log IAP   log K(400 K,   2 atm)

  H2(g)           -25.82    -28.85   -3.02  H2
  H2O(g)            0.25     -0.13   -0.38  H2O
  O2(g)            -8.37    -11.46   -3.09  O2

**For a gas, SI = log10(fugacity). Fugacity = pressure * phi / 1 atm.
  For ideal gases, phi = 1.

Reaction step 9.

Using solution 1.	
Using temperature 1.	
Using pressure 1.	
Using reaction 1.	

Reaction 1.	

	  6.424e+00 moles of the following reaction have been added:

	                 Relative
	Reactant            moles

	CaCl2                1.00000

	                 Relative
	Element             moles
	Ca                   1.00000
	Cl                   2.00000

-----------------------------Solution composition------------------------------

	Elements           Molality       Moles

	Ca                6.424e+00   6.424e+00
	Cl                1.285e+01   1.285e+01

----------------------------Description of solution----------------------------

                                       pH  =   5.889      Charge balance
                                       pe  =   6.057      Adjusted to redox equilibrium
      Specific Conductance (µS/cm, 127°C)  = 518485
                          Density (g/cm³)  =   1.35115
                               Volume (L)  =   1.26783
                        Viscosity (mPa s)  =   1.43121
                        Activity of water  =   0.672
                 Ionic strength (mol/kgw)  =   1.927e+01
                       Mass of water (kg)  =   1.000e+00
                 Total alkalinity (eq/kg)  =   4.671e-16
                         Temperature (°C)  = 127.00
                           Pressure (atm)  =  2.43
                  Electrical balance (eq)  =   3.513e-09
 Percent error, 100*(Cat-|An|)/(Cat+|An|)  =   0.00
                               Iterations  =  10
                                  Total H  = 1.110124e+02
                                  Total O  = 5.550622e+01

----------------------------Distribution of species----------------------------

                                               Log       Log       Log    mole V
   Species          Molality    Activity  Molality  Activity     Gamma   cm³/mol

   H+              2.007e-06   1.290e-06    -5.697    -5.889    -0.192      0.00
   OH-             1.981e-06   7.091e-07    -5.703    -6.149    -0.446     24.57
   H2O             5.551e+01   6.724e-01     1.744    -0.172     0.000     19.22
Ca            6.424e+00
   Ca+2            6.424e+00   4.747e+02     0.808     2.676     1.869    -12.07
   CaOH+           2.561e-08   4.108e-05    -7.592    -4.386     3.205     (0)  
Cl            1.285e+01
   Cl-             1.285e+01   1.009e+01     1.109     1.004    -0.105     21.68
   HCl             1.493e-14   2.381e-06   -13.826    -5.623     8.203     23.55
H(0)          8.030e-30
   H2              4.015e-30   4.240e-28   -29.396   -27.373     2.024     19.31
O(0)          7.541e-17
   O2              3.771e-17   3.190e-15   -16.424   -14.496     1.927     34.91

------------------------------Saturation indices-------------------------------

  Phase               SI** log IAP   log K(400 K,   2 atm)

  H2(g)           -24.35    -27.37   -3.02  H2
  H2O(g)            0.21     -0.17   -0.38  H2O
  O2(g)           -11.41    -14.50   -3.09  O2

**For a gas, SI = log10(fugacity). Fugacity = pressure * phi / 1 atm.
  For ideal gases, phi = 1.

------------------
End of simulation.
------------------

-------------------------------------
Reading input data for simulation 11.
-------------------------------------

