WARNING: Database file from DATABASE keyword is used; command line argument ignored.
   Input file: Vm_HCl_sol
  Output file: Vm_HCl_sol.out
Database file: ../database/phreeqc.dat

------------------
Reading data base.
------------------

	SOLUTION_MASTER_SPECIES
	SOLUTION_SPECIES
	PHASES
	GAS_BINARY_PARAMETERS
	EXCHANGE_MASTER_SPECIES
	EXCHANGE_SPECIES
	SURFACE_MASTER_SPECIES
	SURFACE_SPECIES
	MEAN_GAMMAS
	RATES
	END
------------------------------------
Reading input data for simulation 1.
------------------------------------

	DATABASE ../database/phreeqc.dat
	SELECTED_OUTPUT 101
	    file                 Vm_HCl_sol_101.sel
	USER_PUNCH 101
	    headings Mu SC
	    start
	10 PUNCH STR_F$(MU, 20, 12)
	20 PUNCH STR_F$(SC, 20, 10)
	    end
	SOLUTION 1
	 pH 7 charge
	END
-------------------------------------------
Beginning of initial solution calculations.
-------------------------------------------

Initial solution 1.	

-----------------------------Solution composition------------------------------

	Elements           Molality       Moles

	Pure water     

----------------------------Description of solution----------------------------

                                       pH  =   6.997      Charge balance
                                       pe  =   4.000    
      Specific Conductance (µS/cm,  25°C)  = 0
                          Density (g/cm³)  =   0.99704
                               Volume (L)  =   1.00297
                        Viscosity (mPa s)  =   0.89002
                        Activity of water  =   1.000
                 Ionic strength (mol/kgw)  =   1.006e-07
                       Mass of water (kg)  =   1.000e+00
                 Total alkalinity (eq/kg)  =   3.040e-17
                         Temperature (°C)  =  25.00
                  Electrical balance (eq)  =  -3.040e-17
 Percent error, 100*(Cat-|An|)/(Cat+|An|)  =  -0.00
                               Iterations  =   2
                                  Total H  = 1.110124e+02
                                  Total O  = 5.550622e+01

----------------------------Distribution of species----------------------------

                                               Log       Log       Log    mole V
   Species          Molality    Activity  Molality  Activity     Gamma   cm³/mol

   OH-             1.006e-07   1.006e-07    -6.997    -6.997    -0.000     -4.14
   H+              1.006e-07   1.006e-07    -6.997    -6.997    -0.000      0.00
   H2O             5.551e+01   1.000e+00     1.744    -0.000     0.000     18.07
H(0)          1.433e-25
   H2              7.166e-26   7.166e-26   -25.145   -25.145     0.000     14.99
O(0)          0.000e+00
   O2              0.000e+00   0.000e+00   -42.073   -42.073     0.000     30.40

------------------------------Saturation indices-------------------------------

  Phase               SI** log IAP   log K(298 K,   1 atm)

  H2(g)           -22.05    -25.14   -3.10  H2
  H2O(g)           -1.50     -0.00    1.50  H2O
  O2(g)           -39.18    -42.07   -2.89  O2

**For a gas, SI = log10(fugacity). Fugacity = pressure * phi / 1 atm.
  For ideal gases, phi = 1.

------------------
End of simulation.
------------------

------------------------------------
Reading input data for simulation 2.
------------------------------------

	END
------------------
End of simulation.
------------------

------------------------------------
Reading input data for simulation 3.
------------------------------------

	USE solution 1
	REACTION_TEMPERATURE
	 5.000000
	REACTION_PRESSURE
	 0.000000
	REACTION
	 HCl 1
	0 0.092730 0.194210 0.291130 0.388400 0.429680 0.513960 0.599400 0.683270 0.769390 0.852910
	USER_GRAPH
	 -headings 5.C_0.atm
	 -axis_titles "HCl / (mol/kg H2O)" "HCl molar volume / (cm3/mol)"
	10 data 0, 17.116128, 17.252561, 17.349334, 17.422064, 17.447284, 17.496698, 17.542045, 17.579518, 17.616312, 17.646625,
	20 dim d(11)
	30 read d(1), d(2), d(3), d(4), d(5), d(6), d(7), d(8), d(9), d(10), d(11),
	40 if step_no = 1 then put(rho, 10)
	50 if step_no > 1 then Vmol = (1e3 + tot("Cl") * 36.461) / (tot("Cl") * rho) - 1e3 / (tot("Cl") * get(10))
	60 if step_no = 1 then dif = 0 else dif = Vmol - d(step_no)
	62 if tot("Cl") > 10 or tc > 200 then goto 150
	100 if step_no = 1 then goto 150
	110 plot_xy tot("Cl"), d(step_no), symbol = Square, line_w = 0, color = Red
	120 plot_xy tot("Cl"), Vmol, symbol = None, color = Red
	150 end
	END
-----------------------------------------
Beginning of batch-reaction calculations.
-----------------------------------------

Reaction step 1.

Using solution 1.	
Using temperature 1.	
Using pressure 1.	
Using reaction 1.	

Reaction 1.	

	  0.000e+00 moles of the following reaction have been added:

	                 Relative
	Reactant            moles

	HCl                  1.00000

	                 Relative
	Element             moles
	Cl                   1.00000
	H                    1.00000

-----------------------------Solution composition------------------------------

	Elements           Molality       Moles

	Pure water     

----------------------------Description of solution----------------------------

                                       pH  =   7.365      Charge balance
                                       pe  =  -0.484      Adjusted to redox equilibrium
      Specific Conductance (µS/cm,   5°C)  = 0
                          Density (g/cm³)  =   0.99991
                               Volume (L)  =   1.00009
                        Viscosity (mPa s)  =   1.51833
                        Activity of water  =   1.000
                 Ionic strength (mol/kgw)  =   4.318e-08
                       Mass of water (kg)  =   1.000e+00
                 Total alkalinity (eq/kg)  =   3.041e-17
                         Temperature (°C)  =   5.00
                           Pressure (atm)  =  0.01
                  Electrical balance (eq)  =  -3.041e-17
 Percent error, 100*(Cat-|An|)/(Cat+|An|)  =  -0.00
                               Iterations  =   8
                                  Total H  = 1.110124e+02
                                  Total O  = 5.550622e+01

----------------------------Distribution of species----------------------------

                                               Log       Log       Log    mole V
   Species          Molality    Activity  Molality  Activity     Gamma   cm³/mol

   OH-             4.318e-08   4.317e-08    -7.365    -7.365    -0.000     -5.55
   H+              4.318e-08   4.317e-08    -7.365    -7.365    -0.000      0.00
   H2O             5.551e+01   1.000e+00     1.744    -0.000     0.000     18.02
H(0)          3.040e-17
   H2              1.520e-17   1.520e-17   -16.818   -16.818     0.000     13.01
O(0)          0.000e+00
   O2              0.000e+00   0.000e+00   -65.876   -65.876     0.000     28.29

------------------------------Saturation indices-------------------------------

  Phase               SI** log IAP   log K(278 K,   0 atm)

  H2(g)           -13.77    -16.82   -3.05  H2
  H2O(g)           -2.06     -0.00    2.06  H2O
  O2(g)           -63.16    -65.88   -2.71  O2

**For a gas, SI = log10(fugacity). Fugacity = pressure * phi / 1 atm.
  For ideal gases, phi = 1.

Reaction step 2.

Using solution 1.	
Using temperature 1.	
Using pressure 1.	
Using reaction 1.	

Reaction 1.	

	  9.273e-02 moles of the following reaction have been added:

	                 Relative
	Reactant            moles

	HCl                  1.00000

	                 Relative
	Element             moles
	Cl                   1.00000
	H                    1.00000

-----------------------------Solution composition------------------------------

	Elements           Molality       Moles

	Cl                9.273e-02   9.273e-02

----------------------------Description of solution----------------------------

                                       pH  =   1.121      Charge balance
                                       pe  =   4.750      Adjusted to redox equilibrium
      Specific Conductance (µS/cm,   5°C)  = 25523
                          Density (g/cm³)  =   1.00170
                               Volume (L)  =   1.00168
                        Viscosity (mPa s)  =   1.52202
                        Activity of water  =   0.997
                 Ionic strength (mol/kgw)  =   9.082e-02
                       Mass of water (kg)  =   1.000e+00
                 Total alkalinity (eq/kg)  =  -9.273e-02
                         Temperature (°C)  =   5.00
                           Pressure (atm)  =  0.01
                  Electrical balance (eq)  =   1.191e-16
 Percent error, 100*(Cat-|An|)/(Cat+|An|)  =   0.00
                               Iterations  =  11
                                  Total H  = 1.111052e+02
                                  Total O  = 5.550622e+01

----------------------------Distribution of species----------------------------

                                               Log       Log       Log    mole V
   Species          Molality    Activity  Molality  Activity     Gamma   cm³/mol

   H+              9.082e-02   7.569e-02    -1.042    -1.121    -0.079      0.00
   OH-             3.169e-14   2.455e-14   -13.499   -13.610    -0.111     -5.22
   H2O             5.551e+01   9.969e-01     1.744    -0.001     0.000     18.02
Cl            9.273e-02
   Cl-             9.082e-02   7.077e-02    -1.042    -1.150    -0.108     17.18
   HCl             1.911e-03   2.089e-03    -2.719    -2.680     0.039     18.45
H(0)          3.111e-15
   H2              1.555e-15   1.590e-15   -14.808   -14.799     0.010     13.01
O(0)          0.000e+00
   O2              0.000e+00   0.000e+00   -69.927   -69.918     0.009     28.29

------------------------------Saturation indices-------------------------------

  Phase               SI** log IAP   log K(278 K,   0 atm)

  H2(g)           -11.75    -14.80   -3.05  H2
  H2O(g)           -2.06     -0.00    2.06  H2O
  O2(g)           -67.20    -69.92   -2.71  O2

**For a gas, SI = log10(fugacity). Fugacity = pressure * phi / 1 atm.
  For ideal gases, phi = 1.

Reaction step 3.

Using solution 1.	
Using temperature 1.	
Using pressure 1.	
Using reaction 1.	

Reaction 1.	

	  1.942e-01 moles of the following reaction have been added:

	                 Relative
	Reactant            moles

	HCl                  1.00000

	                 Relative
	Element             moles
	Cl                   1.00000
	H                    1.00000

-----------------------------Solution composition------------------------------

	Elements           Molality       Moles

	Cl                1.942e-01   1.942e-01

----------------------------Description of solution----------------------------

                                       pH  =   0.821      Charge balance
                                       pe  =  18.695      Adjusted to redox equilibrium
      Specific Conductance (µS/cm,   5°C)  = 51677
                          Density (g/cm³)  =   1.00362
                               Volume (L)  =   1.00345
                        Viscosity (mPa s)  =   1.52572
                        Activity of water  =   0.994
                 Ionic strength (mol/kgw)  =   1.875e-01
                       Mass of water (kg)  =   1.000e+00
                 Total alkalinity (eq/kg)  =  -1.942e-01
                         Temperature (°C)  =   5.00
                           Pressure (atm)  =  0.01
                  Electrical balance (eq)  =   3.051e-16
 Percent error, 100*(Cat-|An|)/(Cat+|An|)  =   0.00
                               Iterations  =  16
                                  Total H  = 1.112066e+02
                                  Total O  = 5.550622e+01

----------------------------Distribution of species----------------------------

                                               Log       Log       Log    mole V
   Species          Molality    Activity  Molality  Activity     Gamma   cm³/mol

   H+              1.875e-01   1.509e-01    -0.727    -0.821    -0.094      0.00
   OH-             1.707e-14   1.227e-14   -13.768   -13.911    -0.143     -5.01
   H2O             5.551e+01   9.935e-01     1.744    -0.003     0.000     18.02
Cl            1.942e-01
   Cl-             1.875e-01   1.363e-01    -0.727    -0.865    -0.138     17.29
   HCl             6.678e-03   8.025e-03    -2.175    -2.096     0.080     18.45
H(0)          0.000e+00
   H2              0.000e+00   0.000e+00   -42.109   -42.089     0.020     13.01
O(0)          8.774e-16
   O2              4.387e-16   4.581e-16   -15.358   -15.339     0.019     28.29

------------------------------Saturation indices-------------------------------

  Phase               SI** log IAP   log K(278 K,   0 atm)

  H2(g)           -39.04    -42.09   -3.05  H2
  H2O(g)           -2.06     -0.00    2.06  H2O
  O2(g)           -12.62    -15.34   -2.71  O2

**For a gas, SI = log10(fugacity). Fugacity = pressure * phi / 1 atm.
  For ideal gases, phi = 1.

Reaction step 4.

Using solution 1.	
Using temperature 1.	
Using pressure 1.	
Using reaction 1.	

Reaction 1.	

	  2.911e-01 moles of the following reaction have been added:

	                 Relative
	Reactant            moles

	HCl                  1.00000

	                 Relative
	Element             moles
	Cl                   1.00000
	H                    1.00000

-----------------------------Solution composition------------------------------

	Elements           Molality       Moles

	Cl                2.911e-01   2.911e-01

----------------------------Description of solution----------------------------

                                       pH  =   0.658      Charge balance
                                       pe  =  18.965      Adjusted to redox equilibrium
      Specific Conductance (µS/cm,   5°C)  = 75512
                          Density (g/cm³)  =   1.00543
                               Volume (L)  =   1.00516
                        Viscosity (mPa s)  =   1.52927
                        Activity of water  =   0.990
                 Ionic strength (mol/kgw)  =   2.784e-01
                       Mass of water (kg)  =   1.000e+00
                 Total alkalinity (eq/kg)  =  -2.911e-01
                         Temperature (°C)  =   5.00
                           Pressure (atm)  =  0.01
                  Electrical balance (eq)  =   5.421e-17
 Percent error, 100*(Cat-|An|)/(Cat+|An|)  =   0.00
                               Iterations  =  17
                                  Total H  = 1.113036e+02
                                  Total O  = 5.550622e+01

----------------------------Distribution of species----------------------------

                                               Log       Log       Log    mole V
   Species          Molality    Activity  Molality  Activity     Gamma   cm³/mol

   H+              2.784e-01   2.199e-01    -0.555    -0.658    -0.102      0.00
   OH-             1.221e-14   8.393e-15   -13.913   -14.076    -0.163     -4.84
   H2O             5.551e+01   9.903e-01     1.744    -0.004     0.000     18.02
Cl            2.911e-01
   Cl-             2.784e-01   1.944e-01    -0.555    -0.711    -0.156     17.37
   HCl             1.270e-02   1.668e-02    -1.896    -1.778     0.119     18.45
H(0)          0.000e+00
   H2              0.000e+00   0.000e+00   -42.332   -42.303     0.029     13.01
O(0)          2.282e-15
   O2              1.141e-15   1.217e-15   -14.943   -14.915     0.028     28.29

------------------------------Saturation indices-------------------------------

  Phase               SI** log IAP   log K(278 K,   0 atm)

  H2(g)           -39.26    -42.30   -3.05  H2
  H2O(g)           -2.06     -0.00    2.06  H2O
  O2(g)           -12.20    -14.91   -2.71  O2

**For a gas, SI = log10(fugacity). Fugacity = pressure * phi / 1 atm.
  For ideal gases, phi = 1.

Reaction step 5.

Using solution 1.	
Using temperature 1.	
Using pressure 1.	
Using reaction 1.	

Reaction 1.	

	  3.884e-01 moles of the following reaction have been added:

	                 Relative
	Reactant            moles

	HCl                  1.00000

	                 Relative
	Element             moles
	Cl                   1.00000
	H                    1.00000

-----------------------------Solution composition------------------------------

	Elements           Molality       Moles

	Cl                3.884e-01   3.884e-01

----------------------------Description of solution----------------------------

                                       pH  =   0.541      Charge balance
                                       pe  =   5.245      Adjusted to redox equilibrium
      Specific Conductance (µS/cm,   5°C)  = 98521
                          Density (g/cm³)  =   1.00723
                               Volume (L)  =   1.00688
                        Viscosity (mPa s)  =   1.53287
                        Activity of water  =   0.987
                 Ionic strength (mol/kgw)  =   3.688e-01
                       Mass of water (kg)  =   1.000e+00
                 Total alkalinity (eq/kg)  =  -3.884e-01
                         Temperature (°C)  =   5.00
                           Pressure (atm)  =  0.01
                  Electrical balance (eq)  =   3.325e-17
 Percent error, 100*(Cat-|An|)/(Cat+|An|)  =   0.00
                               Iterations  =  11
                                  Total H  = 1.114008e+02
                                  Total O  = 5.550622e+01

----------------------------Distribution of species----------------------------

                                               Log       Log       Log    mole V
   Species          Molality    Activity  Molality  Activity     Gamma   cm³/mol

   H+              3.688e-01   2.876e-01    -0.433    -0.541    -0.108      0.00
   OH-             9.626e-15   6.397e-15   -14.017   -14.194    -0.177     -4.67
   H2O             5.551e+01   9.871e-01     1.744    -0.006     0.000     18.02
Cl            3.884e-01
   Cl-             3.688e-01   2.502e-01    -0.433    -0.602    -0.169     17.44
   HCl             1.955e-02   2.807e-02    -1.709    -1.552     0.157     18.45
H(0)          4.286e-15
   H2              2.143e-15   2.343e-15   -14.669   -14.630     0.039     13.01
O(0)          0.000e+00
   O2              0.000e+00   0.000e+00   -70.300   -70.263     0.037     28.29

------------------------------Saturation indices-------------------------------

  Phase               SI** log IAP   log K(278 K,   0 atm)

  H2(g)           -11.59    -14.63   -3.05  H2
  H2O(g)           -2.06     -0.01    2.06  H2O
  O2(g)           -67.55    -70.26   -2.71  O2

**For a gas, SI = log10(fugacity). Fugacity = pressure * phi / 1 atm.
  For ideal gases, phi = 1.

Reaction step 6.

Using solution 1.	
Using temperature 1.	
Using pressure 1.	
Using reaction 1.	

Reaction 1.	

	  4.297e-01 moles of the following reaction have been added:

	                 Relative
	Reactant            moles

	HCl                  1.00000

	                 Relative
	Element             moles
	Cl                   1.00000
	H                    1.00000

-----------------------------Solution composition------------------------------

	Elements           Molality       Moles

	Cl                4.297e-01   4.297e-01

----------------------------Description of solution----------------------------

                                       pH  =   0.500      Charge balance
                                       pe  =   5.260      Adjusted to redox equilibrium
      Specific Conductance (µS/cm,   5°C)  = 108040
                          Density (g/cm³)  =   1.00799
                               Volume (L)  =   1.00761
                        Viscosity (mPa s)  =   1.53441
                        Activity of water  =   0.986
                 Ionic strength (mol/kgw)  =   4.071e-01
                       Mass of water (kg)  =   1.000e+00
                 Total alkalinity (eq/kg)  =  -4.297e-01
                         Temperature (°C)  =   5.00
                           Pressure (atm)  =  0.01
                  Electrical balance (eq)  =   1.812e-14
 Percent error, 100*(Cat-|An|)/(Cat+|An|)  =   0.00
                               Iterations  =  11
                                  Total H  = 1.114421e+02
                                  Total O  = 5.550622e+01

----------------------------Distribution of species----------------------------

                                               Log       Log       Log    mole V
   Species          Molality    Activity  Molality  Activity     Gamma   cm³/mol

   H+              4.071e-01   3.160e-01    -0.390    -0.500    -0.110      0.00
   OH-             8.853e-15   5.814e-15   -14.053   -14.236    -0.183     -4.61
   H2O             5.551e+01   9.858e-01     1.744    -0.006     0.000     18.02
Cl            4.297e-01
   Cl-             4.071e-01   2.734e-01    -0.390    -0.563    -0.173     17.47
   HCl             2.261e-02   3.370e-02    -1.646    -1.472     0.173     18.45
H(0)          4.798e-15
   H2              2.399e-15   2.647e-15   -14.620   -14.577     0.043     13.01
O(0)          0.000e+00
   O2              0.000e+00   0.000e+00   -70.411   -70.370     0.041     28.29

------------------------------Saturation indices-------------------------------

  Phase               SI** log IAP   log K(278 K,   0 atm)

  H2(g)           -11.53    -14.58   -3.05  H2
  H2O(g)           -2.06     -0.01    2.06  H2O
  O2(g)           -67.66    -70.37   -2.71  O2

**For a gas, SI = log10(fugacity). Fugacity = pressure * phi / 1 atm.
  For ideal gases, phi = 1.

Reaction step 7.

Using solution 1.	
Using temperature 1.	
Using pressure 1.	
Using reaction 1.	

Reaction 1.	

	  5.140e-01 moles of the following reaction have been added:

	                 Relative
	Reactant            moles

	HCl                  1.00000

	                 Relative
	Element             moles
	Cl                   1.00000
	H                    1.00000

-----------------------------Solution composition------------------------------

	Elements           Molality       Moles

	Cl                5.140e-01   5.140e-01

----------------------------Description of solution----------------------------

                                       pH  =   0.428      Charge balance
                                       pe  =  19.145      Adjusted to redox equilibrium
      Specific Conductance (µS/cm,   5°C)  = 127058
                          Density (g/cm³)  =   1.00954
                               Volume (L)  =   1.00912
                        Viscosity (mPa s)  =   1.53758
                        Activity of water  =   0.983
                 Ionic strength (mol/kgw)  =   4.850e-01
                       Mass of water (kg)  =   1.000e+00
                 Total alkalinity (eq/kg)  =  -5.140e-01
                         Temperature (°C)  =   5.00
                           Pressure (atm)  =  0.01
                  Electrical balance (eq)  =   3.703e-11
 Percent error, 100*(Cat-|An|)/(Cat+|An|)  =   0.00
                               Iterations  =  16
                                  Total H  = 1.115264e+02
                                  Total O  = 5.550622e+01

----------------------------Distribution of species----------------------------

                                               Log       Log       Log    mole V
   Species          Molality    Activity  Molality  Activity     Gamma   cm³/mol

   H+              4.850e-01   3.737e-01    -0.314    -0.428    -0.113      0.00
   OH-             7.629e-15   4.904e-15   -14.118   -14.309    -0.192     -4.48
   H2O             5.551e+01   9.830e-01     1.744    -0.007     0.000     18.02
Cl            5.140e-01
   Cl-             4.850e-01   3.200e-01    -0.314    -0.495    -0.181     17.52
   HCl             2.899e-02   4.663e-02    -1.538    -1.331     0.206     18.45
H(0)          0.000e+00
   H2              0.000e+00   0.000e+00   -42.253   -42.202     0.051     13.01
O(0)          1.347e-15
   O2              6.735e-16   7.531e-16   -15.172   -15.123     0.048     28.29

------------------------------Saturation indices-------------------------------

  Phase               SI** log IAP   log K(278 K,   0 atm)

  H2(g)           -39.16    -42.20   -3.05  H2
  H2O(g)           -2.06     -0.01    2.06  H2O
  O2(g)           -12.41    -15.12   -2.71  O2

**For a gas, SI = log10(fugacity). Fugacity = pressure * phi / 1 atm.
  For ideal gases, phi = 1.

Reaction step 8.

Using solution 1.	
Using temperature 1.	
Using pressure 1.	
Using reaction 1.	

Reaction 1.	

	  5.994e-01 moles of the following reaction have been added:

	                 Relative
	Reactant            moles

	HCl                  1.00000

	                 Relative
	Element             moles
	Cl                   1.00000
	H                    1.00000

-----------------------------Solution composition------------------------------

	Elements           Molality       Moles

	Cl                5.994e-01   5.994e-01

----------------------------Description of solution----------------------------

                                       pH  =   0.365      Charge balance
                                       pe  =   5.505      Adjusted to redox equilibrium
      Specific Conductance (µS/cm,   5°C)  = 145803
                          Density (g/cm³)  =   1.01109
                               Volume (L)  =   1.01065
                        Viscosity (mPa s)  =   1.54083
                        Activity of water  =   0.980
                 Ionic strength (mol/kgw)  =   5.639e-01
                       Mass of water (kg)  =   1.000e+00
                 Total alkalinity (eq/kg)  =  -5.994e-01
                         Temperature (°C)  =   5.00
                           Pressure (atm)  =  0.01
                  Electrical balance (eq)  =   9.574e-12
 Percent error, 100*(Cat-|An|)/(Cat+|An|)  =   0.00
                               Iterations  =  13
                                  Total H  = 1.116118e+02
                                  Total O  = 5.550622e+01

----------------------------Distribution of species----------------------------

                                               Log       Log       Log    mole V
   Species          Molality    Activity  Molality  Activity     Gamma   cm³/mol

   H+              5.639e-01   4.317e-01    -0.249    -0.365    -0.116      0.00
   OH-             6.709e-15   4.232e-15   -14.173   -14.373    -0.200     -4.35
   H2O             5.551e+01   9.802e-01     1.744    -0.009     0.000     18.02
Cl            5.994e-01
   Cl-             5.639e-01   3.665e-01    -0.249    -0.436    -0.187     17.57
   HCl             3.551e-02   6.171e-02    -1.450    -1.210     0.240     18.45
H(0)          2.791e-15
   H2              1.396e-15   1.599e-15   -14.855   -14.796     0.059     13.01
O(0)          0.000e+00
   O2              0.000e+00   0.000e+00   -69.994   -69.938     0.056     28.29

------------------------------Saturation indices-------------------------------

  Phase               SI** log IAP   log K(278 K,   0 atm)

  H2(g)           -11.75    -14.80   -3.05  H2
  H2O(g)           -2.07     -0.01    2.06  H2O
  O2(g)           -67.22    -69.94   -2.71  O2

**For a gas, SI = log10(fugacity). Fugacity = pressure * phi / 1 atm.
  For ideal gases, phi = 1.

Reaction step 9.

Using solution 1.	
Using temperature 1.	
Using pressure 1.	
Using reaction 1.	

Reaction 1.	

	  6.833e-01 moles of the following reaction have been added:

	                 Relative
	Reactant            moles

	HCl                  1.00000

	                 Relative
	Element             moles
	Cl                   1.00000
	H                    1.00000

-----------------------------Solution composition------------------------------

	Elements           Molality       Moles

	Cl                6.833e-01   6.833e-01

----------------------------Description of solution----------------------------

                                       pH  =   0.311      Charge balance
                                       pe  =  19.369      Adjusted to redox equilibrium
      Specific Conductance (µS/cm,   5°C)  = 163713
                          Density (g/cm³)  =   1.01260
                               Volume (L)  =   1.01216
                        Viscosity (mPa s)  =   1.54407
                        Activity of water  =   0.977
                 Ionic strength (mol/kgw)  =   6.414e-01
                       Mass of water (kg)  =   1.000e+00
                 Total alkalinity (eq/kg)  =  -6.833e-01
                         Temperature (°C)  =   5.00
                           Pressure (atm)  =  0.01
                  Electrical balance (eq)  =  -7.076e-10
 Percent error, 100*(Cat-|An|)/(Cat+|An|)  =  -0.00
                               Iterations  =  16
                                  Total H  = 1.116957e+02
                                  Total O  = 5.550622e+01

----------------------------Distribution of species----------------------------

                                               Log       Log       Log    mole V
   Species          Molality    Activity  Molality  Activity     Gamma   cm³/mol

   H+              6.414e-01   4.885e-01    -0.193    -0.311    -0.118      0.00
   OH-             6.008e-15   3.730e-15   -14.221   -14.428    -0.207     -4.23
   H2O             5.551e+01   9.775e-01     1.744    -0.010     0.000     18.02
Cl            6.833e-01
   Cl-             6.414e-01   4.118e-01    -0.193    -0.385    -0.193     17.61
   HCl             4.184e-02   7.844e-02    -1.378    -1.105     0.273     18.45
H(0)          0.000e+00
   H2              0.000e+00   0.000e+00   -42.484   -42.417     0.067     13.01
O(0)          3.459e-15
   O2              1.729e-15   2.005e-15   -14.762   -14.698     0.064     28.29

------------------------------Saturation indices-------------------------------

  Phase               SI** log IAP   log K(278 K,   0 atm)

  H2(g)           -39.37    -42.42   -3.05  H2
  H2O(g)           -2.07     -0.01    2.06  H2O
  O2(g)           -11.98    -14.70   -2.71  O2

**For a gas, SI = log10(fugacity). Fugacity = pressure * phi / 1 atm.
  For ideal gases, phi = 1.

Reaction step 10.

Using solution 1.	
Using temperature 1.	
Using pressure 1.	
Using reaction 1.	

Reaction 1.	

	  7.694e-01 moles of the following reaction have been added:

	                 Relative
	Reactant            moles

	HCl                  1.00000

	                 Relative
	Element             moles
	Cl                   1.00000
	H                    1.00000

-----------------------------Solution composition------------------------------

	Elements           Molality       Moles

	Cl                7.694e-01   7.694e-01

----------------------------Description of solution----------------------------

                                       pH  =   0.262      Charge balance
                                       pe  =   5.760      Adjusted to redox equilibrium
      Specific Conductance (µS/cm,   5°C)  = 181625
                          Density (g/cm³)  =   1.01415
                               Volume (L)  =   1.01371
                        Viscosity (mPa s)  =   1.54744
                        Activity of water  =   0.975
                 Ionic strength (mol/kgw)  =   7.212e-01
                       Mass of water (kg)  =   1.000e+00
                 Total alkalinity (eq/kg)  =  -7.694e-01
                         Temperature (°C)  =   5.00
                           Pressure (atm)  =  0.01
                  Electrical balance (eq)  =   3.137e-09
 Percent error, 100*(Cat-|An|)/(Cat+|An|)  =   0.00
                               Iterations  =  12
                                  Total H  = 1.117818e+02
                                  Total O  = 5.550622e+01

----------------------------Distribution of species----------------------------

                                               Log       Log       Log    mole V
   Species          Molality    Activity  Molality  Activity     Gamma   cm³/mol

   H+              7.212e-01   5.466e-01    -0.142    -0.262    -0.120      0.00
   OH-             5.432e-15   3.323e-15   -14.265   -14.478    -0.213     -4.10
   H2O             5.551e+01   9.747e-01     1.744    -0.011     0.000     18.02
Cl            7.694e-01
   Cl-             7.212e-01   4.579e-01    -0.142    -0.339    -0.197     17.66
   HCl             4.815e-02   9.763e-02    -1.317    -1.010     0.307     18.45
H(0)          1.330e-15
   H2              6.652e-16   7.919e-16   -15.177   -15.101     0.076     13.01
O(0)          0.000e+00
   O2              0.000e+00   0.000e+00   -69.404   -69.332     0.072     28.29

------------------------------Saturation indices-------------------------------

  Phase               SI** log IAP   log K(278 K,   0 atm)

  H2(g)           -12.06    -15.10   -3.05  H2
  H2O(g)           -2.07     -0.01    2.06  H2O
  O2(g)           -66.62    -69.33   -2.71  O2

**For a gas, SI = log10(fugacity). Fugacity = pressure * phi / 1 atm.
  For ideal gases, phi = 1.

Reaction step 11.

Using solution 1.	
Using temperature 1.	
Using pressure 1.	
Using reaction 1.	

Reaction 1.	

	  8.529e-01 moles of the following reaction have been added:

	                 Relative
	Reactant            moles

	HCl                  1.00000

	                 Relative
	Element             moles
	Cl                   1.00000
	H                    1.00000

-----------------------------Solution composition------------------------------

	Elements           Molality       Moles

	Cl                8.529e-01   8.529e-01

----------------------------Description of solution----------------------------

                                       pH  =   0.220      Charge balance
                                       pe  =  19.443      Adjusted to redox equilibrium
      Specific Conductance (µS/cm,   5°C)  = 198551
                          Density (g/cm³)  =   1.01564
                               Volume (L)  =   1.01522
                        Viscosity (mPa s)  =   1.55077
                        Activity of water  =   0.972
                 Ionic strength (mol/kgw)  =   7.989e-01
                       Mass of water (kg)  =   1.000e+00
                 Total alkalinity (eq/kg)  =  -8.529e-01
                         Temperature (°C)  =   5.00
                           Pressure (atm)  =  0.01
                  Electrical balance (eq)  =   3.138e-10
 Percent error, 100*(Cat-|An|)/(Cat+|An|)  =   0.00
                               Iterations  =  16
                                  Total H  = 1.118653e+02
                                  Total O  = 5.550622e+01

----------------------------Distribution of species----------------------------

                                               Log       Log       Log    mole V
   Species          Molality    Activity  Molality  Activity     Gamma   cm³/mol

   H+              7.989e-01   6.031e-01    -0.098    -0.220    -0.122      0.00
   OH-             4.973e-15   3.004e-15   -14.303   -14.522    -0.219     -3.98
   H2O             5.551e+01   9.719e-01     1.744    -0.012     0.000     18.02
Cl            8.529e-01
   Cl-             7.989e-01   5.025e-01    -0.098    -0.299    -0.201     17.70
   HCl             5.403e-02   1.182e-01    -1.267    -0.927     0.340     18.45
H(0)          0.000e+00
   H2              0.000e+00   0.000e+00   -42.466   -42.382     0.084     13.01
O(0)          2.807e-15
   O2              1.403e-15   1.687e-15   -14.853   -14.773     0.080     28.29

------------------------------Saturation indices-------------------------------

  Phase               SI** log IAP   log K(278 K,   0 atm)

  H2(g)           -39.34    -42.38   -3.05  H2
  H2O(g)           -2.07     -0.01    2.06  H2O
  O2(g)           -12.06    -14.77   -2.71  O2

**For a gas, SI = log10(fugacity). Fugacity = pressure * phi / 1 atm.
  For ideal gases, phi = 1.

------------------
End of simulation.
------------------

------------------------------------
Reading input data for simulation 4.
------------------------------------

	USE solution 1
	REACTION_TEMPERATURE
	 15.000000
	REACTION_PRESSURE
	 0.000000
	REACTION
	 HCl 1
	0 0.010050 0.020320 0.030010 0.050500 0.075390 0.092730 0.100100 0.124000 0.148800 0.194210 0.230300 0.291130 0.388380 0.429680 0.513960 0.599440 0.683270 0.769380 0.852900
	USER_GRAPH
	 -headings 15.C_0.atm
	 -axis_titles "HCl / (mol/kg H2O)" "HCl molar volume / (cm3/mol)"
	10 data 0, 17.368829, 17.375421, 17.473113, 17.707715, 17.789058, 17.924366, 17.822477, 17.911828, 17.926490, 18.060601, 18.042368, 18.149449, 18.219205, 18.245530, 18.294519, 18.335897, 18.374554, 18.408068, 18.438397,
	20 dim d(20)
	30 read d(1), d(2), d(3), d(4), d(5), d(6), d(7), d(8), d(9), d(10), d(11), d(12), d(13), d(14), d(15), d(16), d(17), d(18), d(19), d(20),
	40 if step_no = 1 then put(rho, 10)
	50 if step_no > 1 then Vmol = (1e3 + tot("Cl") * 36.461) / (tot("Cl") * rho) - 1e3 / (tot("Cl") * get(10))
	60 if step_no = 1 then dif = 0 else dif = Vmol - d(step_no)
	62 if tot("Cl") > 10 or tc > 200 then goto 150
	100 if step_no = 1 then goto 150
	110 plot_xy tot("Cl"), d(step_no), symbol = Diamond, line_w = 0, color = Green
	120 plot_xy tot("Cl"), Vmol, symbol = None, color = Green
	150 end
	END
-----------------------------------------
Beginning of batch-reaction calculations.
-----------------------------------------

Reaction step 1.

Using solution 1.	
Using temperature 1.	
Using pressure 1.	
Using reaction 1.	

Reaction 1.	

	  0.000e+00 moles of the following reaction have been added:

	                 Relative
	Reactant            moles

	HCl                  1.00000

	                 Relative
	Element             moles
	Cl                   1.00000
	H                    1.00000

-----------------------------Solution composition------------------------------

	Elements           Molality       Moles

	Pure water     

----------------------------Description of solution----------------------------

                                       pH  =   7.172      Charge balance
                                       pe  =  -0.315      Adjusted to redox equilibrium
      Specific Conductance (µS/cm,  15°C)  = 0
                          Density (g/cm³)  =   0.99905
                               Volume (L)  =   1.00095
                        Viscosity (mPa s)  =   1.13763
                        Activity of water  =   1.000
                 Ionic strength (mol/kgw)  =   6.737e-08
                       Mass of water (kg)  =   1.000e+00
                 Total alkalinity (eq/kg)  =   9.842e-17
                         Temperature (°C)  =  15.00
                           Pressure (atm)  =  0.02
                  Electrical balance (eq)  =  -9.842e-17
 Percent error, 100*(Cat-|An|)/(Cat+|An|)  =  -0.00
                               Iterations  =   7
                                  Total H  = 1.110124e+02
                                  Total O  = 5.550622e+01

----------------------------Distribution of species----------------------------

                                               Log       Log       Log    mole V
   Species          Molality    Activity  Molality  Activity     Gamma   cm³/mol

   OH-             6.737e-08   6.735e-08    -7.172    -7.172    -0.000     -4.66
   H+              6.737e-08   6.735e-08    -7.172    -7.172    -0.000      0.00
   H2O             5.551e+01   1.000e+00     1.744    -0.000     0.000     18.03
H(0)          3.042e-17
   H2              1.521e-17   1.521e-17   -16.818   -16.818     0.000     14.15
O(0)          0.000e+00
   O2              0.000e+00   0.000e+00   -62.169   -62.169     0.000     29.51

------------------------------Saturation indices-------------------------------

  Phase               SI** log IAP   log K(288 K,   0 atm)

  H2(g)           -13.74    -16.82   -3.08  H2
  H2O(g)           -1.77     -0.00    1.77  H2O
  O2(g)           -59.36    -62.17   -2.81  O2

**For a gas, SI = log10(fugacity). Fugacity = pressure * phi / 1 atm.
  For ideal gases, phi = 1.

Reaction step 2.

Using solution 1.	
Using temperature 1.	
Using pressure 1.	
Using reaction 1.	

Reaction 1.	

	  1.005e-02 moles of the following reaction have been added:

	                 Relative
	Reactant            moles

	HCl                  1.00000

	                 Relative
	Element             moles
	Cl                   1.00000
	H                    1.00000

-----------------------------Solution composition------------------------------

	Elements           Molality       Moles

	Cl                1.005e-02   1.005e-02

----------------------------Description of solution----------------------------

                                       pH  =   2.038      Charge balance
                                       pe  =   3.628      Adjusted to redox equilibrium
      Specific Conductance (µS/cm,  15°C)  = 3530
                          Density (g/cm³)  =   0.99924
                               Volume (L)  =   1.00113
                        Viscosity (mPa s)  =   1.13826
                        Activity of water  =   1.000
                 Ionic strength (mol/kgw)  =   1.002e-02
                       Mass of water (kg)  =   1.000e+00
                 Total alkalinity (eq/kg)  =  -1.005e-02
                         Temperature (°C)  =  15.00
                           Pressure (atm)  =  0.02
                  Electrical balance (eq)  =   9.445e-14
 Percent error, 100*(Cat-|An|)/(Cat+|An|)  =   0.00
                               Iterations  =  10
                                  Total H  = 1.110225e+02
                                  Total O  = 5.550622e+01

----------------------------Distribution of species----------------------------

                                               Log       Log       Log    mole V
   Species          Molality    Activity  Molality  Activity     Gamma   cm³/mol

   H+              1.002e-02   9.164e-03    -1.999    -2.038    -0.039      0.00
   OH-             5.490e-13   4.949e-13   -12.260   -12.306    -0.045     -4.56
   H2O             5.551e+01   9.997e-01     1.744    -0.000     0.000     18.03
Cl            1.005e-02
   Cl-             1.002e-02   9.040e-03    -1.999    -2.044    -0.045     17.73
   HCl             3.007e-05   3.036e-05    -4.522    -4.518     0.004     19.56
H(0)          7.276e-15
   H2              3.638e-15   3.647e-15   -14.439   -14.438     0.001     14.15
O(0)          0.000e+00
   O2              0.000e+00   0.000e+00   -66.930   -66.929     0.001     29.51

------------------------------Saturation indices-------------------------------

  Phase               SI** log IAP   log K(288 K,   0 atm)

  H2(g)           -11.36    -14.44   -3.08  H2
  H2O(g)           -1.77     -0.00    1.77  H2O
  O2(g)           -64.12    -66.93   -2.81  O2

**For a gas, SI = log10(fugacity). Fugacity = pressure * phi / 1 atm.
  For ideal gases, phi = 1.

Reaction step 3.

Using solution 1.	
Using temperature 1.	
Using pressure 1.	
Using reaction 1.	

Reaction 1.	

	  2.032e-02 moles of the following reaction have been added:

	                 Relative
	Reactant            moles

	HCl                  1.00000

	                 Relative
	Element             moles
	Cl                   1.00000
	H                    1.00000

-----------------------------Solution composition------------------------------

	Elements           Molality       Moles

	Cl                2.032e-02   2.032e-02

----------------------------Description of solution----------------------------

                                       pH  =   1.745      Charge balance
                                       pe  =  16.821      Adjusted to redox equilibrium
      Specific Conductance (µS/cm,  15°C)  = 7059
                          Density (g/cm³)  =   0.99943
                               Volume (L)  =   1.00131
                        Viscosity (mPa s)  =   1.13878
                        Activity of water  =   0.999
                 Ionic strength (mol/kgw)  =   2.021e-02
                       Mass of water (kg)  =   1.000e+00
                 Total alkalinity (eq/kg)  =  -2.032e-02
                         Temperature (°C)  =  15.00
                           Pressure (atm)  =  0.02
                  Electrical balance (eq)  =   2.358e-12
 Percent error, 100*(Cat-|An|)/(Cat+|An|)  =   0.00
                               Iterations  =  14
                                  Total H  = 1.110328e+02
                                  Total O  = 5.550622e+01

----------------------------Distribution of species----------------------------

                                               Log       Log       Log    mole V
   Species          Molality    Activity  Molality  Activity     Gamma   cm³/mol

   H+              2.021e-02   1.800e-02    -1.695    -1.745    -0.050      0.00
   OH-             2.901e-13   2.519e-13   -12.537   -12.599    -0.061     -4.52
   H2O             5.551e+01   9.993e-01     1.744    -0.000     0.000     18.03
Cl            2.032e-02
   Cl-             2.021e-02   1.757e-02    -1.695    -1.755    -0.061     17.77
   HCl             1.136e-04   1.159e-04    -3.944    -3.936     0.009     19.56
H(0)          0.000e+00
   H2              0.000e+00   0.000e+00   -40.239   -40.237     0.002     14.15
O(0)          9.276e-16
   O2              4.638e-16   4.660e-16   -15.334   -15.332     0.002     29.51

------------------------------Saturation indices-------------------------------

  Phase               SI** log IAP   log K(288 K,   0 atm)

  H2(g)           -37.16    -40.24   -3.08  H2
  H2O(g)           -1.77     -0.00    1.77  H2O
  O2(g)           -12.52    -15.33   -2.81  O2

**For a gas, SI = log10(fugacity). Fugacity = pressure * phi / 1 atm.
  For ideal gases, phi = 1.

Reaction step 4.

Using solution 1.	
Using temperature 1.	
Using pressure 1.	
Using reaction 1.	

Reaction 1.	

	  3.001e-02 moles of the following reaction have been added:

	                 Relative
	Reactant            moles

	HCl                  1.00000

	                 Relative
	Element             moles
	Cl                   1.00000
	H                    1.00000

-----------------------------Solution composition------------------------------

	Elements           Molality       Moles

	Cl                3.001e-02   3.001e-02

----------------------------Description of solution----------------------------

                                       pH  =   1.584      Charge balance
                                       pe  =   4.014      Adjusted to redox equilibrium
      Specific Conductance (µS/cm,  15°C)  = 10345
                          Density (g/cm³)  =   0.99961
                               Volume (L)  =   1.00148
                        Viscosity (mPa s)  =   1.13926
                        Activity of water  =   0.999
                 Ionic strength (mol/kgw)  =   2.978e-02
                       Mass of water (kg)  =   1.000e+00
                 Total alkalinity (eq/kg)  =  -3.001e-02
                         Temperature (°C)  =  15.00
                           Pressure (atm)  =  0.02
                  Electrical balance (eq)  =   3.197e-15
 Percent error, 100*(Cat-|An|)/(Cat+|An|)  =   0.00
                               Iterations  =  11
                                  Total H  = 1.110424e+02
                                  Total O  = 5.550622e+01

----------------------------Distribution of species----------------------------

                                               Log       Log       Log    mole V
   Species          Molality    Activity  Molality  Activity     Gamma   cm³/mol

   H+              2.978e-02   2.609e-02    -1.526    -1.584    -0.057      0.00
   OH-             2.052e-13   1.737e-13   -12.688   -12.760    -0.072     -4.48
   H2O             5.551e+01   9.990e-01     1.744    -0.000     0.000     18.03
Cl            3.001e-02
   Cl-             2.978e-02   2.526e-02    -1.526    -1.597    -0.071     17.80
   HCl             2.346e-04   2.416e-04    -3.630    -3.617     0.013     19.56
H(0)          9.946e-15
   H2              4.973e-15   5.009e-15   -14.303   -14.300     0.003     14.15
O(0)          0.000e+00
   O2              0.000e+00   0.000e+00   -67.208   -67.205     0.003     29.51

------------------------------Saturation indices-------------------------------

  Phase               SI** log IAP   log K(288 K,   0 atm)

  H2(g)           -11.22    -14.30   -3.08  H2
  H2O(g)           -1.77     -0.00    1.77  H2O
  O2(g)           -64.39    -67.21   -2.81  O2

**For a gas, SI = log10(fugacity). Fugacity = pressure * phi / 1 atm.
  For ideal gases, phi = 1.

Reaction step 5.

Using solution 1.	
Using temperature 1.	
Using pressure 1.	
Using reaction 1.	

Reaction 1.	

	  5.050e-02 moles of the following reaction have been added:

	                 Relative
	Reactant            moles

	HCl                  1.00000

	                 Relative
	Element             moles
	Cl                   1.00000
	H                    1.00000

-----------------------------Solution composition------------------------------

	Elements           Molality       Moles

	Cl                5.050e-02   5.050e-02

----------------------------Description of solution----------------------------

                                       pH  =   1.370      Charge balance
                                       pe  =  17.039      Adjusted to redox equilibrium
      Specific Conductance (µS/cm,  15°C)  = 17188
                          Density (g/cm³)  =   0.99999
                               Volume (L)  =   1.00185
                        Viscosity (mPa s)  =   1.14026
                        Activity of water  =   0.998
                 Ionic strength (mol/kgw)  =   4.989e-02
                       Mass of water (kg)  =   1.000e+00
                 Total alkalinity (eq/kg)  =  -5.050e-02
                         Temperature (°C)  =  15.00
                           Pressure (atm)  =  0.02
                  Electrical balance (eq)  =   6.977e-12
 Percent error, 100*(Cat-|An|)/(Cat+|An|)  =   0.00
                               Iterations  =  14
                                  Total H  = 1.110629e+02
                                  Total O  = 5.550622e+01

----------------------------Distribution of species----------------------------

                                               Log       Log       Log    mole V
   Species          Molality    Activity  Molality  Activity     Gamma   cm³/mol

   H+              4.989e-02   4.270e-02    -1.302    -1.370    -0.068      0.00
   OH-             1.303e-13   1.061e-13   -12.885   -12.974    -0.089     -4.41
   H2O             5.551e+01   9.983e-01     1.744    -0.001     0.000     18.03
Cl            5.050e-02
   Cl-             4.989e-02   4.077e-02    -1.302    -1.390    -0.088     17.84
   HCl             6.076e-04   6.380e-04    -3.216    -3.195     0.021     19.56
H(0)          2.359e-40
   H2              1.180e-40   1.194e-40   -39.928   -39.923     0.005     14.15
O(0)          2.165e-16
   O2              1.083e-16   1.095e-16   -15.966   -15.961     0.005     29.51

------------------------------Saturation indices-------------------------------

  Phase               SI** log IAP   log K(288 K,   0 atm)

  H2(g)           -36.85    -39.92   -3.08  H2
  H2O(g)           -1.77     -0.00    1.77  H2O
  O2(g)           -13.15    -15.96   -2.81  O2

**For a gas, SI = log10(fugacity). Fugacity = pressure * phi / 1 atm.
  For ideal gases, phi = 1.

Reaction step 6.

Using solution 1.	
Using temperature 1.	
Using pressure 1.	
Using reaction 1.	

Reaction 1.	

	  7.539e-02 moles of the following reaction have been added:

	                 Relative
	Reactant            moles

	HCl                  1.00000

	                 Relative
	Element             moles
	Cl                   1.00000
	H                    1.00000

-----------------------------Solution composition------------------------------

	Elements           Molality       Moles

	Cl                7.539e-02   7.539e-02

----------------------------Description of solution----------------------------

                                       pH  =   1.206      Charge balance
                                       pe  =  17.317      Adjusted to redox equilibrium
      Specific Conductance (µS/cm,  15°C)  = 25348
                          Density (g/cm³)  =   1.00045
                               Volume (L)  =   1.00230
                        Viscosity (mPa s)  =   1.14147
                        Activity of water  =   0.997
                 Ionic strength (mol/kgw)  =   7.415e-02
                       Mass of water (kg)  =   1.000e+00
                 Total alkalinity (eq/kg)  =  -7.539e-02
                         Temperature (°C)  =  15.00
                           Pressure (atm)  =  0.02
                  Electrical balance (eq)  =   1.432e-10
 Percent error, 100*(Cat-|An|)/(Cat+|An|)  =   0.00
                               Iterations  =  15
                                  Total H  = 1.110878e+02
                                  Total O  = 5.550622e+01

----------------------------Distribution of species----------------------------

                                               Log       Log       Log    mole V
   Species          Molality    Activity  Molality  Activity     Gamma   cm³/mol

   H+              7.415e-02   6.226e-02    -1.130    -1.206    -0.076      0.00
   OH-             9.237e-14   7.267e-14   -13.034   -13.139    -0.104     -4.35
   H2O             5.551e+01   9.975e-01     1.744    -0.001     0.000     18.03
Cl            7.539e-02
   Cl-             7.415e-02   5.863e-02    -1.130    -1.232    -0.102     17.88
   HCl             1.244e-03   1.338e-03    -2.905    -2.874     0.032     19.56
H(0)          0.000e+00
   H2              0.000e+00   0.000e+00   -40.158   -40.150     0.008     14.15
O(0)          6.109e-16
   O2              3.054e-16   3.107e-16   -15.515   -15.508     0.007     29.51

------------------------------Saturation indices-------------------------------

  Phase               SI** log IAP   log K(288 K,   0 atm)

  H2(g)           -37.07    -40.15   -3.08  H2
  H2O(g)           -1.77     -0.00    1.77  H2O
  O2(g)           -12.70    -15.51   -2.81  O2

**For a gas, SI = log10(fugacity). Fugacity = pressure * phi / 1 atm.
  For ideal gases, phi = 1.

Reaction step 7.

Using solution 1.	
Using temperature 1.	
Using pressure 1.	
Using reaction 1.	

Reaction 1.	

	  9.273e-02 moles of the following reaction have been added:

	                 Relative
	Reactant            moles

	HCl                  1.00000

	                 Relative
	Element             moles
	Cl                   1.00000
	H                    1.00000

-----------------------------Solution composition------------------------------

	Elements           Molality       Moles

	Cl                9.273e-02   9.273e-02

----------------------------Description of solution----------------------------

                                       pH  =   1.121      Charge balance
                                       pe  =   4.669      Adjusted to redox equilibrium
      Specific Conductance (µS/cm,  15°C)  = 30949
                          Density (g/cm³)  =   1.00077
                               Volume (L)  =   1.00261
                        Viscosity (mPa s)  =   1.14231
                        Activity of water  =   0.997
                 Ionic strength (mol/kgw)  =   9.094e-02
                       Mass of water (kg)  =   1.000e+00
                 Total alkalinity (eq/kg)  =  -9.273e-02
                         Temperature (°C)  =  15.00
                           Pressure (atm)  =  0.02
                  Electrical balance (eq)  =   1.409e-10
 Percent error, 100*(Cat-|An|)/(Cat+|An|)  =   0.00
                               Iterations  =  10
                                  Total H  = 1.111052e+02
                                  Total O  = 5.550622e+01

----------------------------Distribution of species----------------------------

                                               Log       Log       Log    mole V
   Species          Molality    Activity  Molality  Activity     Gamma   cm³/mol

   H+              9.094e-02   7.561e-02    -1.041    -1.121    -0.080      0.00
   OH-             7.749e-14   5.981e-14   -13.111   -13.223    -0.112     -4.30
   H2O             5.551e+01   9.969e-01     1.744    -0.001     0.000     18.03
Cl            9.273e-02
   Cl-             9.094e-02   7.061e-02    -1.041    -1.151    -0.110     17.91
   HCl             1.790e-03   1.957e-03    -2.747    -2.708     0.039     19.56
H(0)          4.035e-15
   H2              2.017e-15   2.062e-15   -14.695   -14.686     0.010     14.15
O(0)          0.000e+00
   O2              0.000e+00   0.000e+00   -66.445   -66.436     0.009     29.51

------------------------------Saturation indices-------------------------------

  Phase               SI** log IAP   log K(288 K,   0 atm)

  H2(g)           -11.61    -14.69   -3.08  H2
  H2O(g)           -1.77     -0.00    1.77  H2O
  O2(g)           -63.62    -66.44   -2.81  O2

**For a gas, SI = log10(fugacity). Fugacity = pressure * phi / 1 atm.
  For ideal gases, phi = 1.

Reaction step 8.

Using solution 1.	
Using temperature 1.	
Using pressure 1.	
Using reaction 1.	

Reaction 1.	

	  1.001e-01 moles of the following reaction have been added:

	                 Relative
	Reactant            moles

	HCl                  1.00000

	                 Relative
	Element             moles
	Cl                   1.00000
	H                    1.00000

-----------------------------Solution composition------------------------------

	Elements           Molality       Moles

	Cl                1.001e-01   1.001e-01

----------------------------Description of solution----------------------------

                                       pH  =   1.090      Charge balance
                                       pe  =  17.502      Adjusted to redox equilibrium
      Specific Conductance (µS/cm,  15°C)  = 33310
                          Density (g/cm³)  =   1.00090
                               Volume (L)  =   1.00275
                        Viscosity (mPa s)  =   1.14266
                        Activity of water  =   0.997
                 Ionic strength (mol/kgw)  =   9.806e-02
                       Mass of water (kg)  =   1.000e+00
                 Total alkalinity (eq/kg)  =  -1.001e-01
                         Temperature (°C)  =  15.00
                           Pressure (atm)  =  0.02
                  Electrical balance (eq)  =   4.610e-11
 Percent error, 100*(Cat-|An|)/(Cat+|An|)  =   0.00
                               Iterations  =  16
                                  Total H  = 1.111125e+02
                                  Total O  = 5.550622e+01

----------------------------Distribution of species----------------------------

                                               Log       Log       Log    mole V
   Species          Molality    Activity  Molality  Activity     Gamma   cm³/mol

   H+              9.806e-02   8.123e-02    -1.009    -1.090    -0.082      0.00
   OH-             7.265e-14   5.566e-14   -13.139   -13.254    -0.116     -4.28
   H2O             5.551e+01   9.966e-01     1.744    -0.001     0.000     18.03
Cl            1.001e-01
   Cl-             9.806e-02   7.561e-02    -1.009    -1.121    -0.113     17.92
   HCl             2.045e-03   2.251e-03    -2.689    -2.648     0.042     19.56
H(0)          0.000e+00
   H2              0.000e+00   0.000e+00   -40.301   -40.290     0.010     14.15
O(0)          1.159e-15
   O2              5.796e-16   5.928e-16   -15.237   -15.227     0.010     29.51

------------------------------Saturation indices-------------------------------

  Phase               SI** log IAP   log K(288 K,   0 atm)

  H2(g)           -37.21    -40.29   -3.08  H2
  H2O(g)           -1.77     -0.00    1.77  H2O
  O2(g)           -12.41    -15.23   -2.81  O2

**For a gas, SI = log10(fugacity). Fugacity = pressure * phi / 1 atm.
  For ideal gases, phi = 1.

Reaction step 9.

Using solution 1.	
Using temperature 1.	
Using pressure 1.	
Using reaction 1.	

Reaction 1.	

	  1.240e-01 moles of the following reaction have been added:

	                 Relative
	Reactant            moles

	HCl                  1.00000

	                 Relative
	Element             moles
	Cl                   1.00000
	H                    1.00000

-----------------------------Solution composition------------------------------

	Elements           Molality       Moles

	Cl                1.240e-01   1.240e-01

----------------------------Description of solution----------------------------

                                       pH  =   1.003      Charge balance
                                       pe  =  17.668      Adjusted to redox equilibrium
      Specific Conductance (µS/cm,  15°C)  = 40897
                          Density (g/cm³)  =   1.00134
                               Volume (L)  =   1.00318
                        Viscosity (mPa s)  =   1.14383
                        Activity of water  =   0.996
                 Ionic strength (mol/kgw)  =   1.210e-01
                       Mass of water (kg)  =   1.000e+00
                 Total alkalinity (eq/kg)  =  -1.240e-01
                         Temperature (°C)  =  15.00
                           Pressure (atm)  =  0.02
                  Electrical balance (eq)  =   1.063e-09
 Percent error, 100*(Cat-|An|)/(Cat+|An|)  =   0.00
                               Iterations  =  16
                                  Total H  = 1.111364e+02
                                  Total O  = 5.550622e+01

----------------------------Distribution of species----------------------------

                                               Log       Log       Log    mole V
   Species          Molality    Activity  Molality  Activity     Gamma   cm³/mol

   H+              1.210e-01   9.924e-02    -0.917    -1.003    -0.086      0.00
   OH-             6.068e-14   4.552e-14   -13.217   -13.342    -0.125     -4.23
   H2O             5.551e+01   9.958e-01     1.744    -0.002     0.000     18.03
Cl            1.240e-01
   Cl-             1.210e-01   9.151e-02    -0.917    -1.039    -0.121     17.95
   HCl             2.956e-03   3.329e-03    -2.529    -2.478     0.052     19.56
H(0)          0.000e+00
   H2              0.000e+00   0.000e+00   -40.460   -40.447     0.013     14.15
O(0)          2.370e-15
   O2              1.185e-15   1.218e-15   -14.926   -14.914     0.012     29.51

------------------------------Saturation indices-------------------------------

  Phase               SI** log IAP   log K(288 K,   0 atm)

  H2(g)           -37.37    -40.45   -3.08  H2
  H2O(g)           -1.77     -0.00    1.77  H2O
  O2(g)           -12.10    -14.91   -2.81  O2

**For a gas, SI = log10(fugacity). Fugacity = pressure * phi / 1 atm.
  For ideal gases, phi = 1.

Reaction step 10.

Using solution 1.	
Using temperature 1.	
Using pressure 1.	
Using reaction 1.	

Reaction 1.	

	  1.488e-01 moles of the following reaction have been added:

	                 Relative
	Reactant            moles

	HCl                  1.00000

	                 Relative
	Element             moles
	Cl                   1.00000
	H                    1.00000

-----------------------------Solution composition------------------------------

	Elements           Molality       Moles

	Cl                1.488e-01   1.488e-01

----------------------------Description of solution----------------------------

                                       pH  =   0.929      Charge balance
                                       pe  =  17.762      Adjusted to redox equilibrium
      Specific Conductance (µS/cm,  15°C)  = 48661
                          Density (g/cm³)  =   1.00179
                               Volume (L)  =   1.00363
                        Viscosity (mPa s)  =   1.14504
                        Activity of water  =   0.995
                 Ionic strength (mol/kgw)  =   1.448e-01
                       Mass of water (kg)  =   1.000e+00
                 Total alkalinity (eq/kg)  =  -1.488e-01
                         Temperature (°C)  =  15.00
                           Pressure (atm)  =  0.02
                  Electrical balance (eq)  =   4.685e-11
 Percent error, 100*(Cat-|An|)/(Cat+|An|)  =   0.00
                               Iterations  =  16
                                  Total H  = 1.111612e+02
                                  Total O  = 5.550622e+01

----------------------------Distribution of species----------------------------

                                               Log       Log       Log    mole V
   Species          Molality    Activity  Molality  Activity     Gamma   cm³/mol

   H+              1.448e-01   1.177e-01    -0.839    -0.929    -0.090      0.00
   OH-             5.211e-14   3.836e-14   -13.283   -13.416    -0.133     -4.18
   H2O             5.551e+01   9.950e-01     1.744    -0.002     0.000     18.03
Cl            1.488e-01
   Cl-             1.448e-01   1.076e-01    -0.839    -0.968    -0.129     17.98
   HCl             4.025e-03   4.639e-03    -2.395    -2.334     0.062     19.56
H(0)          0.000e+00
   H2              0.000e+00   0.000e+00   -40.503   -40.488     0.015     14.15
O(0)          2.842e-15
   O2              1.421e-15   1.469e-15   -14.847   -14.833     0.014     29.51

------------------------------Saturation indices-------------------------------

  Phase               SI** log IAP   log K(288 K,   0 atm)

  H2(g)           -37.41    -40.49   -3.08  H2
  H2O(g)           -1.77     -0.00    1.77  H2O
  O2(g)           -12.02    -14.83   -2.81  O2

**For a gas, SI = log10(fugacity). Fugacity = pressure * phi / 1 atm.
  For ideal gases, phi = 1.

Reaction step 11.

Using solution 1.	
Using temperature 1.	
Using pressure 1.	
Using reaction 1.	

Reaction 1.	

	  1.942e-01 moles of the following reaction have been added:

	                 Relative
	Reactant            moles

	HCl                  1.00000

	                 Relative
	Element             moles
	Cl                   1.00000
	H                    1.00000

-----------------------------Solution composition------------------------------

	Elements           Molality       Moles

	Cl                1.942e-01   1.942e-01

----------------------------Description of solution----------------------------

                                       pH  =   0.822      Charge balance
                                       pe  =  17.742      Adjusted to redox equilibrium
      Specific Conductance (µS/cm,  15°C)  = 62619
                          Density (g/cm³)  =   1.00261
                               Volume (L)  =   1.00446
                        Viscosity (mPa s)  =   1.14729
                        Activity of water  =   0.994
                 Ionic strength (mol/kgw)  =   1.880e-01
                       Mass of water (kg)  =   1.000e+00
                 Total alkalinity (eq/kg)  =  -1.942e-01
                         Temperature (°C)  =  15.00
                           Pressure (atm)  =  0.02
                  Electrical balance (eq)  =   1.517e-10
 Percent error, 100*(Cat-|An|)/(Cat+|An|)  =   0.00
                               Iterations  =  16
                                  Total H  = 1.112066e+02
                                  Total O  = 5.550622e+01

----------------------------Distribution of species----------------------------

                                               Log       Log       Log    mole V
   Species          Molality    Activity  Molality  Activity     Gamma   cm³/mol

   H+              1.880e-01   1.508e-01    -0.726    -0.822    -0.096      0.00
   OH-             4.176e-14   2.988e-14   -13.379   -13.525    -0.145     -4.08
   H2O             5.551e+01   9.935e-01     1.744    -0.003     0.000     18.03
Cl            1.942e-01
   Cl-             1.880e-01   1.360e-01    -0.726    -0.866    -0.140     18.02
   HCl             6.255e-03   7.520e-03    -2.204    -2.124     0.080     19.56
H(0)          0.000e+00
   H2              0.000e+00   0.000e+00   -40.252   -40.232     0.020     14.15
O(0)          8.633e-16
   O2              4.316e-16   4.507e-16   -15.365   -15.346     0.019     29.51

------------------------------Saturation indices-------------------------------

  Phase               SI** log IAP   log K(288 K,   0 atm)

  H2(g)           -37.16    -40.23   -3.08  H2
  H2O(g)           -1.77     -0.00    1.77  H2O
  O2(g)           -12.53    -15.35   -2.81  O2

**For a gas, SI = log10(fugacity). Fugacity = pressure * phi / 1 atm.
  For ideal gases, phi = 1.

Reaction step 12.

Using solution 1.	
Using temperature 1.	
Using pressure 1.	
Using reaction 1.	

Reaction 1.	

	  2.303e-01 moles of the following reaction have been added:

	                 Relative
	Reactant            moles

	HCl                  1.00000

	                 Relative
	Element             moles
	Cl                   1.00000
	H                    1.00000

-----------------------------Solution composition------------------------------

	Elements           Molality       Moles

	Cl                2.303e-01   2.303e-01

----------------------------Description of solution----------------------------

                                       pH  =   0.753      Charge balance
                                       pe  =  17.693      Adjusted to redox equilibrium
      Specific Conductance (µS/cm,  15°C)  = 73496
                          Density (g/cm³)  =   1.00326
                               Volume (L)  =   1.00512
                        Viscosity (mPa s)  =   1.14909
                        Activity of water  =   0.992
                 Ionic strength (mol/kgw)  =   2.221e-01
                       Mass of water (kg)  =   1.000e+00
                 Total alkalinity (eq/kg)  =  -2.303e-01
                         Temperature (°C)  =  15.00
                           Pressure (atm)  =  0.02
                  Electrical balance (eq)  =   1.276e-11
 Percent error, 100*(Cat-|An|)/(Cat+|An|)  =   0.00
                               Iterations  =  15
                                  Total H  = 1.112427e+02
                                  Total O  = 5.550622e+01

----------------------------Distribution of species----------------------------

                                               Log       Log       Log    mole V
   Species          Molality    Activity  Molality  Activity     Gamma   cm³/mol

   H+              2.221e-01   1.768e-01    -0.654    -0.753    -0.099      0.00
   OH-             3.627e-14   2.547e-14   -13.440   -13.594    -0.154     -4.01
   H2O             5.551e+01   9.923e-01     1.744    -0.003     0.000     18.03
Cl            2.303e-01
   Cl-             2.221e-01   1.580e-01    -0.654    -0.801    -0.148     18.05
   HCl             8.235e-03   1.024e-02    -2.084    -1.990     0.095     19.56
H(0)          0.000e+00
   H2              0.000e+00   1.007e-40   -40.020   -39.997     0.023     14.15
O(0)          2.891e-16
   O2              1.445e-16   1.521e-16   -15.840   -15.818     0.022     29.51

------------------------------Saturation indices-------------------------------

  Phase               SI** log IAP   log K(288 K,   0 atm)

  H2(g)           -36.92    -40.00   -3.08  H2
  H2O(g)           -1.77     -0.00    1.77  H2O
  O2(g)           -13.01    -15.82   -2.81  O2

**For a gas, SI = log10(fugacity). Fugacity = pressure * phi / 1 atm.
  For ideal gases, phi = 1.

Reaction step 13.

Using solution 1.	
Using temperature 1.	
Using pressure 1.	
Using reaction 1.	

Reaction 1.	

	  2.911e-01 moles of the following reaction have been added:

	                 Relative
	Reactant            moles

	HCl                  1.00000

	                 Relative
	Element             moles
	Cl                   1.00000
	H                    1.00000

-----------------------------Solution composition------------------------------

	Elements           Molality       Moles

	Cl                2.911e-01   2.911e-01

----------------------------Description of solution----------------------------

                                       pH  =   0.658      Charge balance
                                       pe  =  18.014      Adjusted to redox equilibrium
      Specific Conductance (µS/cm,  15°C)  = 91436
                          Density (g/cm³)  =   1.00435
                               Volume (L)  =   1.00624
                        Viscosity (mPa s)  =   1.15215
                        Activity of water  =   0.990
                 Ionic strength (mol/kgw)  =   2.792e-01
                       Mass of water (kg)  =   1.000e+00
                 Total alkalinity (eq/kg)  =  -2.911e-01
                         Temperature (°C)  =  15.00
                           Pressure (atm)  =  0.02
                  Electrical balance (eq)  =  -6.345e-16
 Percent error, 100*(Cat-|An|)/(Cat+|An|)  =  -0.00
                               Iterations  =  16
                                  Total H  = 1.113036e+02
                                  Total O  = 5.550622e+01

----------------------------Distribution of species----------------------------

                                               Log       Log       Log    mole V
   Species          Molality    Activity  Molality  Activity     Gamma   cm³/mol

   H+              2.792e-01   2.199e-01    -0.554    -0.658    -0.104      0.00
   OH-             2.989e-14   2.043e-14   -13.524   -13.690    -0.165     -3.90
   H2O             5.551e+01   9.903e-01     1.744    -0.004     0.000     18.03
Cl            2.911e-01
   Cl-             2.792e-01   1.940e-01    -0.554    -0.712    -0.158     18.10
   HCl             1.189e-02   1.564e-02    -1.925    -1.806     0.119     19.56
H(0)          0.000e+00
   H2              0.000e+00   0.000e+00   -40.479   -40.449     0.029     14.15
O(0)          2.282e-15
   O2              1.141e-15   1.217e-15   -14.943   -14.915     0.028     29.51

------------------------------Saturation indices-------------------------------

  Phase               SI** log IAP   log K(288 K,   0 atm)

  H2(g)           -37.37    -40.45   -3.08  H2
  H2O(g)           -1.77     -0.00    1.77  H2O
  O2(g)           -12.10    -14.91   -2.81  O2

**For a gas, SI = log10(fugacity). Fugacity = pressure * phi / 1 atm.
  For ideal gases, phi = 1.

Reaction step 14.

Using solution 1.	
Using temperature 1.	
Using pressure 1.	
Using reaction 1.	

Reaction 1.	

	  3.884e-01 moles of the following reaction have been added:

	                 Relative
	Reactant            moles

	HCl                  1.00000

	                 Relative
	Element             moles
	Cl                   1.00000
	H                    1.00000

-----------------------------Solution composition------------------------------

	Elements           Molality       Moles

	Cl                3.884e-01   3.884e-01

----------------------------Description of solution----------------------------

                                       pH  =   0.541      Charge balance
                                       pe  =  18.046      Adjusted to redox equilibrium
      Specific Conductance (µS/cm,  15°C)  = 119196
                          Density (g/cm³)  =   1.00608
                               Volume (L)  =   1.00803
                        Viscosity (mPa s)  =   1.15709
                        Activity of water  =   0.987
                 Ionic strength (mol/kgw)  =   3.701e-01
                       Mass of water (kg)  =   1.000e+00
                 Total alkalinity (eq/kg)  =  -3.884e-01
                         Temperature (°C)  =  15.00
                           Pressure (atm)  =  0.02
                  Electrical balance (eq)  =  -2.520e-15
 Percent error, 100*(Cat-|An|)/(Cat+|An|)  =  -0.00
                               Iterations  =  16
                                  Total H  = 1.114008e+02
                                  Total O  = 5.550622e+01

----------------------------Distribution of species----------------------------

                                               Log       Log       Log    mole V
   Species          Molality    Activity  Molality  Activity     Gamma   cm³/mol

   H+              3.701e-01   2.877e-01    -0.432    -0.541    -0.109      0.00
   OH-             2.356e-14   1.557e-14   -13.628   -13.808    -0.180     -3.73
   H2O             5.551e+01   9.871e-01     1.744    -0.006     0.000     18.03
Cl            3.884e-01
   Cl-             3.701e-01   2.496e-01    -0.432    -0.603    -0.171     18.17
   HCl             1.832e-02   2.632e-02    -1.737    -1.580     0.157     19.56
H(0)          0.000e+00
   H2              0.000e+00   0.000e+00   -40.318   -40.279     0.039     14.15
O(0)          1.014e-15
   O2              5.069e-16   5.520e-16   -15.295   -15.258     0.037     29.51

------------------------------Saturation indices-------------------------------

  Phase               SI** log IAP   log K(288 K,   0 atm)

  H2(g)           -37.20    -40.28   -3.08  H2
  H2O(g)           -1.78     -0.01    1.77  H2O
  O2(g)           -12.45    -15.26   -2.81  O2

**For a gas, SI = log10(fugacity). Fugacity = pressure * phi / 1 atm.
  For ideal gases, phi = 1.

Reaction step 15.

Using solution 1.	
Using temperature 1.	
Using pressure 1.	
Using reaction 1.	

Reaction 1.	

	  4.297e-01 moles of the following reaction have been added:

	                 Relative
	Reactant            moles

	HCl                  1.00000

	                 Relative
	Element             moles
	Cl                   1.00000
	H                    1.00000

-----------------------------Solution composition------------------------------

	Elements           Molality       Moles

	Cl                4.297e-01   4.297e-01

----------------------------Description of solution----------------------------

                                       pH  =   0.500      Charge balance
                                       pe  =   5.239      Adjusted to redox equilibrium
      Specific Conductance (µS/cm,  15°C)  = 130672
                          Density (g/cm³)  =   1.00681
                               Volume (L)  =   1.00880
                        Viscosity (mPa s)  =   1.15921
                        Activity of water  =   0.986
                 Ionic strength (mol/kgw)  =   4.085e-01
                       Mass of water (kg)  =   1.000e+00
                 Total alkalinity (eq/kg)  =  -4.297e-01
                         Temperature (°C)  =  15.00
                           Pressure (atm)  =  0.02
                  Electrical balance (eq)  =   8.863e-12
 Percent error, 100*(Cat-|An|)/(Cat+|An|)  =   0.00
                               Iterations  =  10
                                  Total H  = 1.114421e+02
                                  Total O  = 5.550622e+01

----------------------------Distribution of species----------------------------

                                               Log       Log       Log    mole V
   Species          Molality    Activity  Molality  Activity     Gamma   cm³/mol

   H+              4.085e-01   3.161e-01    -0.389    -0.500    -0.111      0.00
   OH-             2.167e-14   1.415e-14   -13.664   -13.849    -0.185     -3.67
   H2O             5.551e+01   9.858e-01     1.744    -0.006     0.000     18.03
Cl            4.297e-01
   Cl-             4.085e-01   2.728e-01    -0.389    -0.564    -0.175     18.20
   HCl             2.118e-02   3.161e-02    -1.674    -1.500     0.174     19.56
H(0)          4.723e-15
   H2              2.361e-15   2.607e-15   -14.627   -14.584     0.043     14.15
O(0)          0.000e+00
   O2              0.000e+00   0.000e+00   -66.690   -66.650     0.041     29.51

------------------------------Saturation indices-------------------------------

  Phase               SI** log IAP   log K(288 K,   0 atm)

  H2(g)           -11.51    -14.58   -3.08  H2
[...]
	Cl                   1.00000
	H                    1.00000

-----------------------------Solution composition------------------------------

	Elements           Molality       Moles

	Pure water     

----------------------------Description of solution----------------------------

                                       pH  =   5.533      Charge balance
                                       pe  =   4.704      Adjusted to redox equilibrium
      Specific Conductance (µS/cm, 300°C)  = 2
                          Density (g/cm³)  =   0.74732
                               Volume (L)  =   1.33811
                        Viscosity (mPa s)  =   0.09258
                        Activity of water  =   1.000
                 Ionic strength (mol/kgw)  =   2.941e-06
                       Mass of water (kg)  =   1.000e+00
                 Total alkalinity (eq/kg)  =   5.239e-17
                         Temperature (°C)  = 300.00
                           Pressure (atm)  = 277.30
                  Electrical balance (eq)  =  -5.239e-17
 Percent error, 100*(Cat-|An|)/(Cat+|An|)  =  -0.00
                               Iterations  =   7
                                  Total H  = 1.110124e+02
                                  Total O  = 5.550622e+01

----------------------------Distribution of species----------------------------

                                               Log       Log       Log    mole V
   Species          Molality    Activity  Molality  Activity     Gamma   cm³/mol

   OH-             2.941e-06   2.928e-06    -5.532    -5.533    -0.002   -119.73
   H+              2.941e-06   2.928e-06    -5.532    -5.533    -0.002      0.00
   H2O             5.551e+01   1.000e+00     1.744    -0.000     0.000     24.11
H(0)          8.879e-25
   H2              4.439e-25   4.439e-25   -24.353   -24.353     0.000     42.85
O(0)          8.080e-11
   O2              4.040e-11   4.040e-11   -10.394   -10.394     0.000     57.77

------------------------------Saturation indices-------------------------------

  Phase               SI** log IAP   log K(573 K, 277 atm)

  H2(g)           -22.01    -24.35   -2.35  H2
  H2O(g)            1.87     -0.00   -1.87  H2O
  O2(g)            -7.88    -10.39   -2.51  O2

**For a gas, SI = log10(fugacity). Fugacity = pressure * phi / 1 atm.
  For ideal gases, phi = 1.

Reaction step 2.

Using solution 1.	
Using temperature 1.	
Using pressure 1.	
Using reaction 1.	

Reaction 1.	

	  1.013e-01 moles of the following reaction have been added:

	                 Relative
	Reactant            moles

	HCl                  1.00000

	                 Relative
	Element             moles
	Cl                   1.00000
	H                    1.00000

-----------------------------Solution composition------------------------------

	Elements           Molality       Moles

	Cl                1.013e-01   1.013e-01

----------------------------Description of solution----------------------------

                                       pH  =   1.166      Charge balance
                                       pe  =   9.078      Adjusted to redox equilibrium
      Specific Conductance (µS/cm, 300°C)  = 67797
                          Density (g/cm³)  =   0.75443
                               Volume (L)  =   1.33040
                        Viscosity (mPa s)  =   0.09258 (solute contributions limited to 200 °C)
                        Activity of water  =   0.997
                 Ionic strength (mol/kgw)  =   1.012e-01
                       Mass of water (kg)  =   1.000e+00
                 Total alkalinity (eq/kg)  =  -1.013e-01
                         Temperature (°C)  = 300.00
                           Pressure (atm)  = 277.30
                  Electrical balance (eq)  =   2.934e-14
 Percent error, 100*(Cat-|An|)/(Cat+|An|)  =   0.00
                               Iterations  =  11
                                  Total H  = 1.111137e+02
                                  Total O  = 5.550622e+01

----------------------------Distribution of species----------------------------

                                               Log       Log       Log    mole V
   Species          Molality    Activity  Molality  Activity     Gamma   cm³/mol

   H+              1.012e-01   6.817e-02    -0.995    -1.166    -0.172      0.00
   OH-             2.110e-10   1.178e-10    -9.676    -9.929    -0.253   -109.18
   H2O             5.551e+01   9.966e-01     1.744    -0.001     0.000     24.11
Cl            1.013e-01
   Cl-             1.012e-01   5.708e-02    -0.995    -1.244    -0.249    -76.30
   HCl             1.185e-04   1.309e-04    -3.926    -3.883     0.043     29.79
H(0)          8.401e-25
   H2              4.201e-25   4.305e-25   -24.377   -24.366     0.011     42.85
O(0)          8.338e-11
   O2              4.169e-11   4.267e-11   -10.380   -10.370     0.010     57.77

------------------------------Saturation indices-------------------------------

  Phase               SI** log IAP   log K(573 K, 277 atm)

  H2(g)           -22.02    -24.37   -2.35  H2
  H2O(g)            1.86     -0.00   -1.87  H2O
  O2(g)            -7.86    -10.37   -2.51  O2

**For a gas, SI = log10(fugacity). Fugacity = pressure * phi / 1 atm.
  For ideal gases, phi = 1.

Reaction step 3.

Using solution 1.	
Using temperature 1.	
Using pressure 1.	
Using reaction 1.	

Reaction 1.	

	  2.013e-01 moles of the following reaction have been added:

	                 Relative
	Reactant            moles

	HCl                  1.00000

	                 Relative
	Element             moles
	Cl                   1.00000
	H                    1.00000

-----------------------------Solution composition------------------------------

	Elements           Molality       Moles

	Cl                2.013e-01   2.013e-01

----------------------------Description of solution----------------------------

                                       pH  =   0.896      Charge balance
                                       pe  =   9.516      Adjusted to redox equilibrium
      Specific Conductance (µS/cm, 300°C)  = 131279
                          Density (g/cm³)  =   0.76103
                               Volume (L)  =   1.32365
                        Viscosity (mPa s)  =   0.09258 (solute contributions limited to 200 °C)
                        Activity of water  =   0.993
                 Ionic strength (mol/kgw)  =   2.009e-01
                       Mass of water (kg)  =   1.000e+00
                 Total alkalinity (eq/kg)  =  -2.013e-01
                         Temperature (°C)  = 300.00
                           Pressure (atm)  = 277.30
                  Electrical balance (eq)  =   6.631e-13
 Percent error, 100*(Cat-|An|)/(Cat+|An|)  =   0.00
                               Iterations  =  10
                                  Total H  = 1.112137e+02
                                  Total O  = 5.550622e+01

----------------------------Distribution of species----------------------------

                                               Log       Log       Log    mole V
   Species          Molality    Activity  Molality  Activity     Gamma   cm³/mol

   H+              2.009e-01   1.271e-01    -0.697    -0.896    -0.199      0.00
   OH-             1.274e-10   6.133e-11    -9.895   -10.212    -0.317   -104.78
   H2O             5.551e+01   9.932e-01     1.744    -0.003     0.000     24.11
Cl            2.013e-01
   Cl-             2.009e-01   9.852e-02    -0.697    -1.006    -0.310    -72.03
   HCl             3.548e-04   4.320e-04    -3.450    -3.365     0.086     29.79
H(0)          3.788e-25
   H2              1.894e-25   1.988e-25   -24.723   -24.702     0.021     42.85
O(0)          3.794e-10
   O2              1.897e-10   1.987e-10    -9.722    -9.702     0.020     57.77

------------------------------Saturation indices-------------------------------

  Phase               SI** log IAP   log K(573 K, 277 atm)

  H2(g)           -22.35    -24.70   -2.35  H2
  H2O(g)            1.86     -0.00   -1.87  H2O
  O2(g)            -7.19     -9.70   -2.51  O2

**For a gas, SI = log10(fugacity). Fugacity = pressure * phi / 1 atm.
  For ideal gases, phi = 1.

Reaction step 4.

Using solution 1.	
Using temperature 1.	
Using pressure 1.	
Using reaction 1.	

Reaction 1.	

	  5.052e-01 moles of the following reaction have been added:

	                 Relative
	Reactant            moles

	HCl                  1.00000

	                 Relative
	Element             moles
	Cl                   1.00000
	H                    1.00000

-----------------------------Solution composition------------------------------

	Elements           Molality       Moles

	Cl                5.052e-01   5.052e-01

----------------------------Description of solution----------------------------

                                       pH  =   0.530      Charge balance
                                       pe  =  10.026      Adjusted to redox equilibrium
      Specific Conductance (µS/cm, 300°C)  = 310811
                          Density (g/cm³)  =   0.77971
                               Volume (L)  =   1.30616
                        Viscosity (mPa s)  =   0.09258 (solute contributions limited to 200 °C)
                        Activity of water  =   0.983
                 Ionic strength (mol/kgw)  =   5.039e-01
                       Mass of water (kg)  =   1.000e+00
                 Total alkalinity (eq/kg)  =  -5.052e-01
                         Temperature (°C)  = 300.00
                           Pressure (atm)  = 277.30
                  Electrical balance (eq)  =  -2.822e-10
 Percent error, 100*(Cat-|An|)/(Cat+|An|)  =  -0.00
                               Iterations  =   9
                                  Total H  = 1.115176e+02
                                  Total O  = 5.550622e+01

----------------------------Distribution of species----------------------------

                                               Log       Log       Log    mole V
   Species          Molality    Activity  Molality  Activity     Gamma   cm³/mol

   H+              5.039e-01   2.954e-01    -0.298    -0.530    -0.232      0.00
   OH-             6.392e-11   2.479e-11   -10.194   -10.606    -0.411    -95.83
   H2O             5.551e+01   9.828e-01     1.744    -0.008     0.000     24.11
Cl            5.052e-01
   Cl-             5.039e-01   2.027e-01    -0.298    -0.693    -0.395    -63.49
   HCl             1.325e-03   2.171e-03    -2.878    -2.663     0.214     29.79
H(0)          1.818e-25
   H2              9.091e-26   1.027e-25   -25.041   -24.988     0.053     42.85
O(0)          1.299e-09
   O2              6.494e-10   7.293e-10    -9.187    -9.137     0.050     57.77

------------------------------Saturation indices-------------------------------

  Phase               SI** log IAP   log K(573 K, 277 atm)

  H2(g)           -22.64    -24.99   -2.35  H2
  H2O(g)            1.86     -0.01   -1.87  H2O
  O2(g)            -6.63     -9.14   -2.51  O2

**For a gas, SI = log10(fugacity). Fugacity = pressure * phi / 1 atm.
  For ideal gases, phi = 1.

Reaction step 5.

Using solution 1.	
Using temperature 1.	
Using pressure 1.	
Using reaction 1.	

Reaction 1.	

	  1.035e+00 moles of the following reaction have been added:

	                 Relative
	Reactant            moles

	HCl                  1.00000

	                 Relative
	Element             moles
	Cl                   1.00000
	H                    1.00000

-----------------------------Solution composition------------------------------

	Elements           Molality       Moles

	Cl                1.035e+00   1.035e+00

----------------------------Description of solution----------------------------

                                       pH  =   0.240      Charge balance
                                       pe  =  10.227      Adjusted to redox equilibrium
      Specific Conductance (µS/cm, 300°C)  = 569663
                          Density (g/cm³)  =   0.80888
                               Volume (L)  =   1.28294
                        Viscosity (mPa s)  =   0.09258 (solute contributions limited to 200 °C)
                        Activity of water  =   0.965
                 Ionic strength (mol/kgw)  =   1.032e+00
                       Mass of water (kg)  =   1.000e+00
                 Total alkalinity (eq/kg)  =  -1.035e+00
                         Temperature (°C)  = 300.00
                           Pressure (atm)  = 277.30
                  Electrical balance (eq)  =   1.258e-14
 Percent error, 100*(Cat-|An|)/(Cat+|An|)  =   0.00
                               Iterations  =  10
                                  Total H  = 1.120474e+02
                                  Total O  = 5.550622e+01

----------------------------Distribution of species----------------------------

                                               Log       Log       Log    mole V
   Species          Molality    Activity  Molality  Activity     Gamma   cm³/mol

   H+              1.032e+00   5.753e-01     0.014    -0.240    -0.254      0.00
   OH-             3.591e-11   1.173e-11   -10.445   -10.931    -0.486    -85.16
   H2O             5.551e+01   9.649e-01     1.744    -0.016     0.000     24.11
Cl            1.035e+00
   Cl-             1.032e+00   3.596e-01     0.014    -0.444    -0.458    -53.54
   HCl             2.892e-03   7.953e-03    -2.539    -2.099     0.439     29.79
H(0)          2.399e-25
   H2              1.199e-25   1.539e-25   -24.921   -24.813     0.108     42.85
O(0)          4.932e-10
   O2              2.466e-10   3.128e-10    -9.608    -9.505     0.103     57.77

------------------------------Saturation indices-------------------------------

  Phase               SI** log IAP   log K(573 K, 277 atm)

  H2(g)           -22.47    -24.81   -2.35  H2
  H2O(g)            1.85     -0.02   -1.87  H2O
  O2(g)            -6.99     -9.50   -2.51  O2

**For a gas, SI = log10(fugacity). Fugacity = pressure * phi / 1 atm.
  For ideal gases, phi = 1.

Reaction step 6.

Using solution 1.	
Using temperature 1.	
Using pressure 1.	
Using reaction 1.	

Reaction 1.	

	  2.991e+00 moles of the following reaction have been added:

	                 Relative
	Reactant            moles

	HCl                  1.00000

	                 Relative
	Element             moles
	Cl                   1.00000
	H                    1.00000

-----------------------------Solution composition------------------------------

	Elements           Molality       Moles

	Cl                2.991e+00   2.991e+00

----------------------------Description of solution----------------------------

                                       pH  =  -0.196      Charge balance
                                       pe  =  10.678      Adjusted to redox equilibrium
      Specific Conductance (µS/cm, 300°C)  = 1057421
                          Density (g/cm³)  =   0.88948
                               Volume (L)  =   1.24686
                        Viscosity (mPa s)  =   0.09258 (solute contributions limited to 200 °C)
                        Activity of water  =   0.898
                 Ionic strength (mol/kgw)  =   2.988e+00
                       Mass of water (kg)  =   1.000e+00
                 Total alkalinity (eq/kg)  =  -2.991e+00
                         Temperature (°C)  = 300.00
                           Pressure (atm)  = 277.30
                  Electrical balance (eq)  =   2.561e-08
 Percent error, 100*(Cat-|An|)/(Cat+|An|)  =   0.00
                               Iterations  =  11
                                  Total H  = 1.140034e+02
                                  Total O  = 5.550622e+01

----------------------------Distribution of species----------------------------

                                               Log       Log       Log    mole V
   Species          Molality    Activity  Molality  Activity     Gamma   cm³/mol

   H+              2.988e+00   1.571e+00     0.475     0.196    -0.279      0.00
   OH-             1.330e-11   3.441e-12   -10.876   -11.463    -0.587    -59.53
   H2O             5.551e+01   8.984e-01     1.744    -0.047     0.000     24.11
Cl            2.991e+00
   Cl-             2.988e+00   8.995e-01     0.475    -0.046    -0.521    -30.58
   HCl             3.328e-03   6.219e-02    -2.478    -1.206     1.272     29.79
H(0)          1.402e-25
   H2              7.009e-26   1.443e-25   -25.154   -24.841     0.314     42.85
O(0)          3.100e-10
   O2              1.550e-10   3.084e-10    -9.810    -9.511     0.299     57.77

------------------------------Saturation indices-------------------------------

  Phase               SI** log IAP   log K(573 K, 277 atm)

  H2(g)           -22.49    -24.84   -2.35  H2
  H2O(g)            1.82     -0.05   -1.87  H2O
  O2(g)            -7.00     -9.51   -2.51  O2

**For a gas, SI = log10(fugacity). Fugacity = pressure * phi / 1 atm.
  For ideal gases, phi = 1.

Reaction step 7.

Using solution 1.	
Using temperature 1.	
Using pressure 1.	
Using reaction 1.	

Reaction 1.	

	  6.017e+00 moles of the following reaction have been added:

	                 Relative
	Reactant            moles

	HCl                  1.00000

	                 Relative
	Element             moles
	Cl                   1.00000
	H                    1.00000

-----------------------------Solution composition------------------------------

	Elements           Molality       Moles

	Cl                6.017e+00   6.017e+00

----------------------------Description of solution----------------------------

                                       pH  =  -0.488      Charge balance
                                       pe  =  11.130      Adjusted to redox equilibrium
      Specific Conductance (µS/cm, 300°C)  = 1454392
                          Density (g/cm³)  =   0.94314
                               Volume (L)  =   1.29290
                        Viscosity (mPa s)  =   0.09258 (solute contributions limited to 200 °C)
                        Activity of water  =   0.795
                 Ionic strength (mol/kgw)  =   6.016e+00
                       Mass of water (kg)  =   1.000e+00
                 Total alkalinity (eq/kg)  =  -6.017e+00
                         Temperature (°C)  = 300.00
                           Pressure (atm)  = 277.30
                  Electrical balance (eq)  =  -5.077e-14
 Percent error, 100*(Cat-|An|)/(Cat+|An|)  =  -0.00
                               Iterations  =  11
                                  Total H  = 1.170294e+02
                                  Total O  = 5.550622e+01

----------------------------Distribution of species----------------------------

                                               Log       Log       Log    mole V
   Species          Molality    Activity  Molality  Activity     Gamma   cm³/mol

   H+              6.016e+00   3.077e+00     0.779     0.488    -0.291      0.00
   OH-             5.837e-12   1.326e-12   -11.234   -11.877    -0.644    -32.34
   H2O             5.551e+01   7.954e-01     1.744    -0.099     0.000     24.11
Cl            6.017e+00
   Cl-             6.016e+00   1.803e+00     0.779     0.256    -0.523     -7.52
   HCl             7.687e-04   2.794e-01    -3.114    -0.554     2.561     29.79
H(0)          3.223e-26
   H2              1.612e-26   6.901e-26   -25.793   -25.161     0.632     42.85
O(0)          5.294e-10
   O2              2.647e-10   1.058e-09    -9.577    -8.976     0.602     57.77

------------------------------Saturation indices-------------------------------

  Phase               SI** log IAP   log K(573 K, 277 atm)

  H2(g)           -22.81    -25.16   -2.35  H2
  H2O(g)            1.77     -0.10   -1.87  H2O
  O2(g)            -6.46     -8.98   -2.51  O2

**For a gas, SI = log10(fugacity). Fugacity = pressure * phi / 1 atm.
  For ideal gases, phi = 1.

------------------
End of simulation.
------------------

-------------------------------------
Reading input data for simulation 21.
-------------------------------------

