WARNING: Database file from DATABASE keyword is used; command line argument ignored.
   Input file: Vm_KHCO3_sol
  Output file: Vm_KHCO3_sol.out
Database file: ../database/phreeqc.dat

------------------
Reading data base.
------------------

	SOLUTION_MASTER_SPECIES
	SOLUTION_SPECIES
	PHASES
	GAS_BINARY_PARAMETERS
	EXCHANGE_MASTER_SPECIES
	EXCHANGE_SPECIES
	SURFACE_MASTER_SPECIES
	SURFACE_SPECIES
	MEAN_GAMMAS
	RATES
	END
------------------------------------
Reading input data for simulation 1.
------------------------------------

	DATABASE ../database/phreeqc.dat
	SELECTED_OUTPUT 101
	    file                 Vm_KHCO3_sol_101.sel
	USER_PUNCH 101
	    headings Mu SC
	    start
	10 PUNCH STR_F$(MU, 20, 12)
	20 PUNCH STR_F$(SC, 20, 10)
	    end
	SOLUTION 1
	 pH 7 charge
	END
-------------------------------------------
Beginning of initial solution calculations.
-------------------------------------------

Initial solution 1.	

-----------------------------Solution composition------------------------------

	Elements           Molality       Moles

	Pure water     

----------------------------Description of solution----------------------------

                                       pH  =   6.997      Charge balance
                                       pe  =   4.000    
      Specific Conductance (µS/cm,  25°C)  = 0
                          Density (g/cm³)  =   0.99704
                               Volume (L)  =   1.00297
                        Viscosity (mPa s)  =   0.89002
                        Activity of water  =   1.000
                 Ionic strength (mol/kgw)  =   1.006e-07
                       Mass of water (kg)  =   1.000e+00
                 Total alkalinity (eq/kg)  =   3.040e-17
                         Temperature (°C)  =  25.00
                  Electrical balance (eq)  =  -3.040e-17
 Percent error, 100*(Cat-|An|)/(Cat+|An|)  =  -0.00
                               Iterations  =   2
                                  Total H  = 1.110124e+02
                                  Total O  = 5.550622e+01

----------------------------Distribution of species----------------------------

                                               Log       Log       Log    mole V
   Species          Molality    Activity  Molality  Activity     Gamma   cm³/mol

   OH-             1.006e-07   1.006e-07    -6.997    -6.997    -0.000     -4.14
   H+              1.006e-07   1.006e-07    -6.997    -6.997    -0.000      0.00
   H2O             5.551e+01   1.000e+00     1.744    -0.000     0.000     18.07
H(0)          1.433e-25
   H2              7.166e-26   7.166e-26   -25.145   -25.145     0.000     14.99
O(0)          0.000e+00
   O2              0.000e+00   0.000e+00   -42.073   -42.073     0.000     30.40

------------------------------Saturation indices-------------------------------

  Phase               SI** log IAP   log K(298 K,   1 atm)

  H2(g)           -22.05    -25.14   -3.10  H2
  H2O(g)           -1.50     -0.00    1.50  H2O
  O2(g)           -39.18    -42.07   -2.89  O2

**For a gas, SI = log10(fugacity). Fugacity = pressure * phi / 1 atm.
  For ideal gases, phi = 1.

------------------
End of simulation.
------------------

------------------------------------
Reading input data for simulation 2.
------------------------------------

	USE solution 1
	REACTION_TEMPERATURE
	 5.000000
	REACTION_PRESSURE
	 1.000000
	REACTION
	 KHCO3 1
	0  0.50348 0.30169 0.15050 0.08064 0.05045 0.03015 0.01505
	USER_GRAPH
	 -headings 5.oC
	-axis_titles "KHCO3 / (mol/kg H2O)" "KHCO3 molar volume / (cm3/mol)"
	10 data 0, 32.425, 31.74, 30.92, 31.12, 30.33, 31.85, 32.11
	20 dim d(8)
	30 read d(1), d(2), d(3), d(4), d(5), d(6), d(7), d(8),
	40 if step_no = 1 then put(rho, 10)
	50 if step_no > 1 then Vmol = (1e3 + tot("K") * 100.1211) / (tot("K") * rho) - 1e3 / (tot("K") * get(10))
	60 if step_no = 1 then dif = 0 else dif = Vmol - d(step_no)
	62 if step_no = 1 then goto 90
	70 plot_xy tot("K"), d(step_no), line_w = 0, color = Yellow #aph_x tot("K") # dif, str$(tc), str$(pressure), str$(step_no + get(1))
	80 plot_xy tot("K"), Vmol, symbol = None, color = Yellow #step_no = 264 then put(step_no + get(1), 1)
	 90 end
	END
-----------------------------------------
Beginning of batch-reaction calculations.
-----------------------------------------

Reaction step 1.

Using solution 1.	
Using temperature 1.	
Using pressure 1.	
Using reaction 1.	

Reaction 1.	

	  0.000e+00 moles of the following reaction have been added:

	                 Relative
	Reactant            moles

	KHCO3                1.00000

	                 Relative
	Element             moles
	C                    1.00000
	H                    1.00000
	K                    1.00000
	O                    3.00000

-----------------------------Solution composition------------------------------

	Elements           Molality       Moles

	Pure water     

----------------------------Description of solution----------------------------

                                       pH  =   7.365      Charge balance
                                       pe  =  -0.484      Adjusted to redox equilibrium
      Specific Conductance (µS/cm,   5°C)  = 0
                          Density (g/cm³)  =   0.99996
                               Volume (L)  =   1.00004
                        Viscosity (mPa s)  =   1.51818
                        Activity of water  =   1.000
                 Ionic strength (mol/kgw)  =   4.318e-08
                       Mass of water (kg)  =   1.000e+00
                 Total alkalinity (eq/kg)  =   3.041e-17
                         Temperature (°C)  =   5.00
                  Electrical balance (eq)  =  -3.041e-17
 Percent error, 100*(Cat-|An|)/(Cat+|An|)  =  -0.00
                               Iterations  =   8
                                  Total H  = 1.110124e+02
                                  Total O  = 5.550622e+01

----------------------------Distribution of species----------------------------

                                               Log       Log       Log    mole V
   Species          Molality    Activity  Molality  Activity     Gamma   cm³/mol

   OH-             4.318e-08   4.317e-08    -7.365    -7.365    -0.000     -5.54
   H+              4.318e-08   4.317e-08    -7.365    -7.365    -0.000      0.00
   H2O             5.551e+01   1.000e+00     1.744    -0.000     0.000     18.02
H(0)          3.040e-17
   H2              1.520e-17   1.520e-17   -16.818   -16.818     0.000     13.02
O(0)          0.000e+00
   O2              0.000e+00   0.000e+00   -65.876   -65.876     0.000     28.29

------------------------------Saturation indices-------------------------------

  Phase               SI** log IAP   log K(278 K,   1 atm)

  H2(g)           -13.77    -16.82   -3.05  H2
  H2O(g)           -2.06     -0.00    2.06  H2O
  O2(g)           -63.16    -65.88   -2.71  O2

**For a gas, SI = log10(fugacity). Fugacity = pressure * phi / 1 atm.
  For ideal gases, phi = 1.

Reaction step 2.

Using solution 1.	
Using temperature 1.	
Using pressure 1.	
Using reaction 1.	

Reaction 1.	

	  5.035e-01 moles of the following reaction have been added:

	                 Relative
	Reactant            moles

	KHCO3                1.00000

	                 Relative
	Element             moles
	C                    1.00000
	H                    1.00000
	K                    1.00000
	O                    3.00000

-----------------------------Solution composition------------------------------

	Elements           Molality       Moles

	C                 5.034e-01   5.035e-01
	K                 5.034e-01   5.035e-01

----------------------------Description of solution----------------------------

                                       pH  =   8.214      Charge balance
                                       pe  =  11.492      Adjusted to redox equilibrium
      Specific Conductance (µS/cm,   5°C)  = 25912
                          Density (g/cm³)  =   1.03342
                               Volume (L)  =   1.01644
                        Viscosity (mPa s)  =   1.54816
                        Activity of water  =   0.983
                 Ionic strength (mol/kgw)  =   4.810e-01
                       Mass of water (kg)  =   1.000e+00
                 Total alkalinity (eq/kg)  =   5.034e-01
                       Total CO2 (mol/kg)  =   5.034e-01
                         Temperature (°C)  =   5.00
                  Electrical balance (eq)  =   1.097e-12
 Percent error, 100*(Cat-|An|)/(Cat+|An|)  =   0.00
                               Iterations  =  14
                                  Total H  = 1.115159e+02
                                  Total O  = 5.701666e+01

----------------------------Distribution of species----------------------------

                                               Log       Log       Log    mole V
   Species          Molality    Activity  Molality  Activity     Gamma   cm³/mol

   OH-             4.664e-07   3.001e-07    -6.331    -6.523    -0.192     -4.47
   H+              7.924e-09   6.108e-09    -8.101    -8.214    -0.113      0.00
   H2O             5.551e+01   9.834e-01     1.744    -0.007     0.000     18.02
C(-4)         0.000e+00
   CH4             0.000e+00   0.000e+00  -132.638  -132.590     0.048     33.36
C(4)          5.034e-01
   HCO3-           4.624e-01   3.268e-01    -0.335    -0.486    -0.151     24.74
   KHCO3           2.865e-02   3.201e-02    -1.543    -1.495     0.048     19.39
   CO2             6.194e-03   6.664e-03    -2.208    -2.176     0.032     33.79
   CO3-2           6.194e-03   1.493e-03    -2.208    -2.826    -0.618     -4.51
   (CO2)2          1.998e-07   2.150e-07    -6.699    -6.668     0.032     66.74
H(0)          0.000e+00
   H2              0.000e+00   0.000e+00   -42.519   -42.469     0.051     13.02
K             5.034e-01
   K+              4.748e-01   3.106e-01    -0.324    -0.508    -0.184      8.67
   KHCO3           2.865e-02   3.201e-02    -1.543    -1.495     0.048     19.39
O(0)          4.607e-15
   O2              2.304e-15   2.573e-15   -14.638   -14.589     0.048     28.29

------------------------------Saturation indices-------------------------------

  Phase               SI** log IAP   log K(278 K,   1 atm)

  CH4(g)         -130.03   -132.59   -2.56  CH4
  CO2(g)           -0.98     -2.18   -1.19  CO2
  H2(g)           -39.42    -42.47   -3.05  H2
  H2O(g)           -2.06     -0.01    2.06  H2O
  O2(g)           -11.87    -14.59   -2.71  O2

**For a gas, SI = log10(fugacity). Fugacity = pressure * phi / 1 atm.
  For ideal gases, phi = 1.

Reaction step 3.

Using solution 1.	
Using temperature 1.	
Using pressure 1.	
Using reaction 1.	

Reaction 1.	

	  3.017e-01 moles of the following reaction have been added:

	                 Relative
	Reactant            moles

	KHCO3                1.00000

	                 Relative
	Element             moles
	C                    1.00000
	H                    1.00000
	K                    1.00000
	O                    3.00000

-----------------------------Solution composition------------------------------

	Elements           Molality       Moles

	C                 3.017e-01   3.017e-01
	K                 3.017e-01   3.017e-01

----------------------------Description of solution----------------------------

                                       pH  =   8.254      Charge balance
                                       pe  =  11.463      Adjusted to redox equilibrium
      Specific Conductance (µS/cm,   5°C)  = 16445
                          Density (g/cm³)  =   1.02035
                               Volume (L)  =   1.00966
                        Viscosity (mPa s)  =   1.53425
                        Activity of water  =   0.990
                 Ionic strength (mol/kgw)  =   2.931e-01
                       Mass of water (kg)  =   1.000e+00
                 Total alkalinity (eq/kg)  =   3.017e-01
                       Total CO2 (mol/kg)  =   3.017e-01
                         Temperature (°C)  =   5.00
                  Electrical balance (eq)  =   8.318e-13
 Percent error, 100*(Cat-|An|)/(Cat+|An|)  =   0.00
                               Iterations  =  14
                                  Total H  = 1.113141e+02
                                  Total O  = 5.641129e+01

----------------------------Distribution of species----------------------------

                                               Log       Log       Log    mole V
   Species          Molality    Activity  Molality  Activity     Gamma   cm³/mol

   OH-             4.843e-07   3.308e-07    -6.315    -6.480    -0.166     -4.80
   H+              7.078e-09   5.577e-09    -8.150    -8.254    -0.103      0.00
   H2O             5.551e+01   9.900e-01     1.744    -0.004     0.000     18.02
C(-4)         0.000e+00
   CH4             0.000e+00   0.000e+00  -132.951  -132.922     0.029     33.36
C(4)          3.017e-01
   HCO3-           2.822e-01   2.069e-01    -0.549    -0.684    -0.135     23.93
   KHCO3           1.218e-02   1.303e-02    -1.914    -1.885     0.029     19.39
   CO2             3.659e-03   3.826e-03    -2.437    -2.417     0.019     33.79
   CO3-2           3.659e-03   1.035e-03    -2.437    -2.985    -0.549     -5.32
   (CO2)2          6.779e-08   7.087e-08    -7.169    -7.150     0.019     66.74
H(0)          0.000e+00
   H2              0.000e+00   0.000e+00   -42.521   -42.490     0.031     13.02
K             3.017e-01
   K+              2.895e-01   1.998e-01    -0.538    -0.700    -0.161      8.51
   KHCO3           1.218e-02   1.303e-02    -1.914    -1.885     0.029     19.39
O(0)          5.377e-15
   O2              2.688e-15   2.876e-15   -14.571   -14.541     0.029     28.29

------------------------------Saturation indices-------------------------------

  Phase               SI** log IAP   log K(278 K,   1 atm)

  CH4(g)         -130.36   -132.92   -2.56  CH4
  CO2(g)           -1.23     -2.42   -1.19  CO2
  H2(g)           -39.44    -42.49   -3.05  H2
  H2O(g)           -2.06     -0.00    2.06  H2O
  O2(g)           -11.83    -14.54   -2.71  O2

**For a gas, SI = log10(fugacity). Fugacity = pressure * phi / 1 atm.
  For ideal gases, phi = 1.

Reaction step 4.

Using solution 1.	
Using temperature 1.	
Using pressure 1.	
Using reaction 1.	

Reaction 1.	

	  1.505e-01 moles of the following reaction have been added:

	                 Relative
	Reactant            moles

	KHCO3                1.00000

	                 Relative
	Element             moles
	C                    1.00000
	H                    1.00000
	K                    1.00000
	O                    3.00000

-----------------------------Solution composition------------------------------

	Elements           Molality       Moles

	C                 1.505e-01   1.505e-01
	K                 1.505e-01   1.505e-01

----------------------------Description of solution----------------------------

                                       pH  =   8.304      Charge balance
                                       pe  =  11.419      Adjusted to redox equilibrium
      Specific Conductance (µS/cm,   5°C)  = 8724
                          Density (g/cm³)  =   1.01028
                               Volume (L)  =   1.00474
                        Viscosity (mPa s)  =   1.52604
                        Activity of water  =   0.995
                 Ionic strength (mol/kgw)  =   1.486e-01
                       Mass of water (kg)  =   1.000e+00
                 Total alkalinity (eq/kg)  =   1.505e-01
                       Total CO2 (mol/kg)  =   1.505e-01
                         Temperature (°C)  =   5.00
                  Electrical balance (eq)  =   5.375e-13
 Percent error, 100*(Cat-|An|)/(Cat+|An|)  =   0.00
                               Iterations  =  14
                                  Total H  = 1.111629e+02
                                  Total O  = 5.595772e+01

----------------------------Distribution of species----------------------------

                                               Log       Log       Log    mole V
   Species          Molality    Activity  Molality  Activity     Gamma   cm³/mol

   OH-             5.069e-07   3.737e-07    -6.295    -6.427    -0.132     -5.08
   H+              6.098e-09   4.962e-09    -8.215    -8.304    -0.089      0.00
   H2O             5.551e+01   9.949e-01     1.744    -0.002     0.000     18.02
C(-4)         0.000e+00
   CH4             0.000e+00   0.000e+00  -133.319  -133.304     0.015     33.36
C(4)          1.505e-01
   HCO3-           1.433e-01   1.106e-01    -0.844    -0.956    -0.112     23.21
   KHCO3           3.668e-03   3.795e-03    -2.436    -2.421     0.015     19.39
   CO2             1.771e-03   1.811e-03    -2.752    -2.742     0.010     33.79
   CO3-2           1.770e-03   6.219e-04    -2.752    -3.206    -0.454     -6.14
   (CO2)2          1.553e-08   1.588e-08    -7.809    -7.799     0.010     66.74
H(0)          0.000e+00
   H2              0.000e+00   0.000e+00   -42.519   -42.503     0.016     13.02
K             1.505e-01
   K+              1.468e-01   1.088e-01    -0.833    -0.963    -0.130      8.38
   KHCO3           3.668e-03   3.795e-03    -2.436    -2.421     0.015     19.39
O(0)          5.970e-15
   O2              2.985e-15   3.089e-15   -14.525   -14.510     0.015     28.29

------------------------------Saturation indices-------------------------------

  Phase               SI** log IAP   log K(278 K,   1 atm)

  CH4(g)         -130.75   -133.30   -2.56  CH4
  CO2(g)           -1.55     -2.74   -1.19  CO2
  H2(g)           -39.46    -42.50   -3.05  H2
  H2O(g)           -2.06     -0.00    2.06  H2O
  O2(g)           -11.80    -14.51   -2.71  O2

**For a gas, SI = log10(fugacity). Fugacity = pressure * phi / 1 atm.
  For ideal gases, phi = 1.

Reaction step 5.

Using solution 1.	
Using temperature 1.	
Using pressure 1.	
Using reaction 1.	

Reaction 1.	

	  8.064e-02 moles of the following reaction have been added:

	                 Relative
	Reactant            moles

	KHCO3                1.00000

	                 Relative
	Element             moles
	C                    1.00000
	H                    1.00000
	K                    1.00000
	O                    3.00000

-----------------------------Solution composition------------------------------

	Elements           Molality       Moles

	C                 8.064e-02   8.064e-02
	K                 8.064e-02   8.064e-02

----------------------------Description of solution----------------------------

                                       pH  =   8.346      Charge balance
                                       pe  =  -2.359      Adjusted to redox equilibrium
      Specific Conductance (µS/cm,   5°C)  = 4884
                          Density (g/cm³)  =   1.00553
                               Volume (L)  =   1.00253
                        Viscosity (mPa s)  =   1.52278
                        Activity of water  =   0.997
                 Ionic strength (mol/kgw)  =   8.035e-02
                       Mass of water (kg)  =   1.000e+00
                 Total alkalinity (eq/kg)  =   8.064e-02
                       Total CO2 (mol/kg)  =   8.064e-02
                         Temperature (°C)  =   5.00
                  Electrical balance (eq)  =   2.017e-10
 Percent error, 100*(Cat-|An|)/(Cat+|An|)  =   0.00
                               Iterations  =  12
                                  Total H  = 1.110931e+02
                                  Total O  = 5.574814e+01

----------------------------Distribution of species----------------------------

                                               Log       Log       Log    mole V
   Species          Molality    Activity  Molality  Activity     Gamma   cm³/mol

   OH-             5.264e-07   4.125e-07    -6.279    -6.385    -0.106     -5.23
   H+              5.375e-09   4.507e-09    -8.270    -8.346    -0.077      0.00
   H2O             5.551e+01   9.973e-01     1.744    -0.001     0.000     18.02
C(-4)         1.907e-24
   CH4             1.907e-24   1.943e-24   -23.720   -23.712     0.008     33.36
C(4)          8.064e-02
   HCO3-           7.759e-02   6.265e-02    -1.110    -1.203    -0.093     22.82
   KHCO3           1.211e-03   1.233e-03    -2.917    -2.909     0.008     19.39
   CO2             9.183e-04   9.295e-04    -3.037    -3.032     0.005     33.79
   CO3-2           9.178e-04   3.878e-04    -3.037    -3.411    -0.374     -6.65
   (CO2)2          4.132e-09   4.183e-09    -8.384    -8.379     0.005     66.74
H(0)          1.821e-15
   H2              9.107e-16   9.286e-16   -15.041   -15.032     0.008     13.02
K             8.064e-02
   K+              7.943e-02   6.241e-02    -1.100    -1.205    -0.105      8.29
   KHCO3           1.211e-03   1.233e-03    -2.917    -2.909     0.008     19.39
O(0)          0.000e+00
   O2              0.000e+00   0.000e+00   -69.458   -69.450     0.008     28.29

------------------------------Saturation indices-------------------------------

  Phase               SI** log IAP   log K(278 K,   1 atm)

  CH4(g)          -21.15    -23.71   -2.56  CH4
  CO2(g)           -1.84     -3.03   -1.19  CO2
  H2(g)           -11.99    -15.03   -3.05  H2
  H2O(g)           -2.06     -0.00    2.06  H2O
  O2(g)           -66.74    -69.45   -2.71  O2

**For a gas, SI = log10(fugacity). Fugacity = pressure * phi / 1 atm.
  For ideal gases, phi = 1.

Reaction step 6.

Using solution 1.	
Using temperature 1.	
Using pressure 1.	
Using reaction 1.	

Reaction 1.	

	  5.045e-02 moles of the following reaction have been added:

	                 Relative
	Reactant            moles

	KHCO3                1.00000

	                 Relative
	Element             moles
	C                    1.00000
	H                    1.00000
	K                    1.00000
	O                    3.00000

-----------------------------Solution composition------------------------------

	Elements           Molality       Moles

	C                 5.045e-02   5.045e-02
	K                 5.045e-02   5.045e-02

----------------------------Description of solution----------------------------

                                       pH  =   8.375      Charge balance
                                       pe  =  11.217      Adjusted to redox equilibrium
      Specific Conductance (µS/cm,   5°C)  = 3140
                          Density (g/cm³)  =   1.00346
                               Volume (L)  =   1.00159
                        Viscosity (mPa s)  =   1.52140
                        Activity of water  =   0.998
                 Ionic strength (mol/kgw)  =   5.049e-02
                       Mass of water (kg)  =   1.000e+00
                 Total alkalinity (eq/kg)  =   5.045e-02
                       Total CO2 (mol/kg)  =   5.045e-02
                         Temperature (°C)  =   5.00
                  Electrical balance (eq)  =   1.195e-16
 Percent error, 100*(Cat-|An|)/(Cat+|An|)  =   0.00
                               Iterations  =  15
                                  Total H  = 1.110629e+02
                                  Total O  = 5.565757e+01

----------------------------Distribution of species----------------------------

                                               Log       Log       Log    mole V
   Species          Molality    Activity  Molality  Activity     Gamma   cm³/mol

   OH-             5.404e-07   4.408e-07    -6.267    -6.356    -0.088     -5.31
   H+              4.925e-09   4.221e-09    -8.308    -8.375    -0.067      0.00
   H2O             5.551e+01   9.983e-01     1.744    -0.001     0.000     18.02
C(-4)         0.000e+00
   CH4             0.000e+00   0.000e+00  -132.767  -132.762     0.005     33.36
C(4)          5.045e-02
   HCO3-           4.881e-02   4.067e-02    -1.311    -1.391    -0.079     22.62
   CO2             5.603e-04   5.646e-04    -3.252    -3.248     0.003     33.79
   CO3-2           5.597e-04   2.688e-04    -3.252    -3.571    -0.318     -6.94
   KHCO3           5.174e-04   5.234e-04    -3.286    -3.281     0.005     19.39
   (CO2)2          1.531e-09   1.543e-09    -8.815    -8.812     0.003     66.74
H(0)          0.000e+00
   H2              0.000e+00   0.000e+00   -42.246   -42.240     0.005     13.02
K             5.045e-02
   K+              4.993e-02   4.080e-02    -1.302    -1.389    -0.088      8.25
   KHCO3           5.174e-04   5.234e-04    -3.286    -3.281     0.005     19.39
O(0)          1.832e-15
   O2              9.159e-16   9.266e-16   -15.038   -15.033     0.005     28.29

------------------------------Saturation indices-------------------------------

  Phase               SI** log IAP   log K(278 K,   1 atm)

  CH4(g)         -130.20   -132.76   -2.56  CH4
  CO2(g)           -2.06     -3.25   -1.19  CO2
  H2(g)           -39.20    -42.24   -3.05  H2
  H2O(g)           -2.06     -0.00    2.06  H2O
  O2(g)           -12.32    -15.03   -2.71  O2

**For a gas, SI = log10(fugacity). Fugacity = pressure * phi / 1 atm.
  For ideal gases, phi = 1.

Reaction step 7.

Using solution 1.	
Using temperature 1.	
Using pressure 1.	
Using reaction 1.	

Reaction 1.	

	  3.015e-02 moles of the following reaction have been added:

	                 Relative
	Reactant            moles

	KHCO3                1.00000

	                 Relative
	Element             moles
	C                    1.00000
	H                    1.00000
	K                    1.00000
	O                    3.00000

-----------------------------Solution composition------------------------------

	Elements           Molality       Moles

	C                 3.015e-02   3.015e-02
	K                 3.015e-02   3.015e-02

----------------------------Description of solution----------------------------

                                       pH  =   8.402      Charge balance
                                       pe  =  -2.823      Adjusted to redox equilibrium
      Specific Conductance (µS/cm,   5°C)  = 1925
                          Density (g/cm³)  =   1.00206
                               Volume (L)  =   1.00096
                        Viscosity (mPa s)  =   1.52042
                        Activity of water  =   0.999
                 Ionic strength (mol/kgw)  =   3.027e-02
                       Mass of water (kg)  =   1.000e+00
                 Total alkalinity (eq/kg)  =   3.015e-02
                       Total CO2 (mol/kg)  =   3.015e-02
                         Temperature (°C)  =   5.00
                  Electrical balance (eq)  =   1.457e-14
 Percent error, 100*(Cat-|An|)/(Cat+|An|)  =   0.00
                               Iterations  =  12
                                  Total H  = 1.110426e+02
                                  Total O  = 5.559667e+01

----------------------------Distribution of species----------------------------

                                               Log       Log       Log    mole V
   Species          Molality    Activity  Molality  Activity     Gamma   cm³/mol

   OH-             5.549e-07   4.704e-07    -6.256    -6.328    -0.072     -5.37
   H+              4.513e-09   3.958e-09    -8.346    -8.402    -0.057      0.00
   H2O             5.551e+01   9.990e-01     1.744    -0.000     0.000     18.02
C(-4)         1.251e-21
   CH4             1.251e-21   1.260e-21   -20.903   -20.900     0.003     33.36
C(4)          3.015e-02
   HCO3-           2.930e-02   2.519e-02    -1.533    -1.599    -0.066     22.47
   CO2             3.262e-04   3.277e-04    -3.487    -3.485     0.002     33.79
   CO3-2           3.256e-04   1.775e-04    -3.487    -3.751    -0.263     -7.18
   KHCO3           2.005e-04   2.019e-04    -3.698    -3.695     0.003     19.39
   (CO2)2          5.175e-10   5.198e-10    -9.286    -9.284     0.002     66.74
H(0)          1.208e-14
   H2              6.042e-15   6.086e-15   -14.219   -14.216     0.003     13.02
K             3.015e-02
   K+              2.995e-02   2.541e-02    -1.524    -1.595    -0.071      8.21
   KHCO3           2.005e-04   2.019e-04    -3.698    -3.695     0.003     19.39
O(0)          0.000e+00
   O2              0.000e+00   0.000e+00   -71.085   -71.082     0.003     28.29

------------------------------Saturation indices-------------------------------

  Phase               SI** log IAP   log K(278 K,   1 atm)

  CH4(g)          -18.34    -20.90   -2.56  CH4
  CO2(g)           -2.29     -3.48   -1.19  CO2
  H2(g)           -11.17    -14.22   -3.05  H2
  H2O(g)           -2.06     -0.00    2.06  H2O
  O2(g)           -68.37    -71.08   -2.71  O2

**For a gas, SI = log10(fugacity). Fugacity = pressure * phi / 1 atm.
  For ideal gases, phi = 1.

Reaction step 8.

Using solution 1.	
Using temperature 1.	
Using pressure 1.	
Using reaction 1.	

Reaction 1.	

	  1.505e-02 moles of the following reaction have been added:

	                 Relative
	Reactant            moles

	KHCO3                1.00000

	                 Relative
	Element             moles
	C                    1.00000
	H                    1.00000
	K                    1.00000
	O                    3.00000

-----------------------------Solution composition------------------------------

	Elements           Molality       Moles

	C                 1.505e-02   1.505e-02
	K                 1.505e-02   1.505e-02

----------------------------Description of solution----------------------------

                                       pH  =   8.434      Charge balance
                                       pe  =  -2.559      Adjusted to redox equilibrium
      Specific Conductance (µS/cm,   5°C)  = 987
                          Density (g/cm³)  =   1.00101
                               Volume (L)  =   1.00049
                        Viscosity (mPa s)  =   1.51960
                        Activity of water  =   0.999
                 Ionic strength (mol/kgw)  =   1.515e-02
                       Mass of water (kg)  =   1.000e+00
                 Total alkalinity (eq/kg)  =   1.505e-02
                       Total CO2 (mol/kg)  =   1.505e-02
                         Temperature (°C)  =   5.00
                  Electrical balance (eq)  =   2.197e-13
 Percent error, 100*(Cat-|An|)/(Cat+|An|)  =   0.00
                               Iterations  =  13
                                  Total H  = 1.110275e+02
                                  Total O  = 5.555137e+01

----------------------------Distribution of species----------------------------

                                               Log       Log       Log    mole V
   Species          Molality    Activity  Molality  Activity     Gamma   cm³/mol

   OH-             5.724e-07   5.062e-07    -6.242    -6.296    -0.053     -5.43
   H+              4.079e-09   3.680e-09    -8.389    -8.434    -0.045      0.00
   H2O             5.551e+01   9.995e-01     1.744    -0.000     0.000     18.02
C(-4)         2.592e-24
   CH4             2.592e-24   2.601e-24   -23.586   -23.585     0.002     33.36
C(4)          1.505e-02
   HCO3-           1.468e-02   1.309e-02    -1.833    -1.883    -0.050     22.34
   CO2             1.578e-04   1.582e-04    -3.802    -3.801     0.001     33.79
   CO3-2           1.573e-04   9.921e-05    -3.803    -4.003    -0.200     -7.42
   KHCO3           5.457e-05   5.476e-05    -4.263    -4.262     0.002     19.39
   (CO2)2          1.209e-10   1.212e-10    -9.918    -9.917     0.001     66.74
H(0)          3.102e-15
   H2              1.551e-15   1.557e-15   -14.809   -14.808     0.002     13.02
K             1.505e-02
   K+              1.500e-02   1.327e-02    -1.824    -1.877    -0.053      8.17
   KHCO3           5.457e-05   5.476e-05    -4.263    -4.262     0.002     19.39
O(0)          0.000e+00
   O2              0.000e+00   0.000e+00   -69.899   -69.897     0.002     28.29

------------------------------Saturation indices-------------------------------

  Phase               SI** log IAP   log K(278 K,   1 atm)

  CH4(g)          -21.03    -23.58   -2.56  CH4
  CO2(g)           -2.61     -3.80   -1.19  CO2
  H2(g)           -11.76    -14.81   -3.05  H2
  H2O(g)           -2.06     -0.00    2.06  H2O
  O2(g)           -67.18    -69.90   -2.71  O2

**For a gas, SI = log10(fugacity). Fugacity = pressure * phi / 1 atm.
  For ideal gases, phi = 1.

------------------
End of simulation.
------------------

------------------------------------
Reading input data for simulation 3.
------------------------------------

	USE solution 1
	REACTION_TEMPERATURE
	 10.000000
	REACTION_PRESSURE
	 1.000000
	REACTION
	 KHCO3 1
	0  0.50348 0.30169 0.15050 0.08064 0.05045 0.03015 0.01505
	USER_GRAPH
	 -headings 10.oC
	10 data 0, 33.33, 32.71, 31.91, 32.08, 31.34, 32.24, 32.77
	20 dim d(8)
	30 read d(1), d(2), d(3), d(4), d(5), d(6), d(7), d(8),
	40 if step_no = 1 then put(rho, 10)
	50 if step_no > 1 then Vmol = (1e3 + tot("K") * 100.1211) / (tot("K") * rho) - 1e3 / (tot("K") * get(10))
	60 if step_no = 1 then dif = 0 else dif = Vmol - d(step_no)
	62 if step_no = 1 then goto 90
	70 plot_xy tot("K"), d(step_no), line_w = 0, color = Red #aph_x tot("K") # dif, str$(tc), str$(pressure), str$(step_no + get(1))
	80 plot_xy tot("K"), Vmol, symbol = None, color = Red #step_no = 264 then put(step_no + get(1), 1)
	 90 end
	END
-----------------------------------------
Beginning of batch-reaction calculations.
-----------------------------------------

Reaction step 1.

Using solution 1.	
Using temperature 1.	
Using pressure 1.	
Using reaction 1.	

Reaction 1.	

	  0.000e+00 moles of the following reaction have been added:

	                 Relative
	Reactant            moles

	KHCO3                1.00000

	                 Relative
	Element             moles
	C                    1.00000
	H                    1.00000
	K                    1.00000
	O                    3.00000

-----------------------------Solution composition------------------------------

	Elements           Molality       Moles

	Pure water     

----------------------------Description of solution----------------------------

                                       pH  =   7.266      Charge balance
                                       pe  =  -0.397      Adjusted to redox equilibrium
      Specific Conductance (µS/cm,  10°C)  = 0
                          Density (g/cm³)  =   0.99970
                               Volume (L)  =   1.00030
                        Viscosity (mPa s)  =   1.30591
                        Activity of water  =   1.000
                 Ionic strength (mol/kgw)  =   5.425e-08
                       Mass of water (kg)  =   1.000e+00
                 Total alkalinity (eq/kg)  =   3.040e-17
                         Temperature (°C)  =  10.00
                  Electrical balance (eq)  =  -3.040e-17
 Percent error, 100*(Cat-|An|)/(Cat+|An|)  =  -0.00
                               Iterations  =   8
                                  Total H  = 1.110124e+02
                                  Total O  = 5.550622e+01

----------------------------Distribution of species----------------------------

                                               Log       Log       Log    mole V
   Species          Molality    Activity  Molality  Activity     Gamma   cm³/mol

   OH-             5.425e-08   5.424e-08    -7.266    -7.266    -0.000     -5.04
   H+              5.425e-08   5.424e-08    -7.266    -7.266    -0.000      0.00
   H2O             5.551e+01   1.000e+00     1.744    -0.000     0.000     18.02
H(0)          3.040e-17
   H2              1.520e-17   1.520e-17   -16.818   -16.818     0.000     13.63
O(0)          0.000e+00
   O2              0.000e+00   0.000e+00   -63.988   -63.988     0.000     28.95

------------------------------Saturation indices-------------------------------

  Phase               SI** log IAP   log K(283 K,   1 atm)

  H2(g)           -13.76    -16.82   -3.06  H2
  H2O(g)           -1.91     -0.00    1.91  H2O
  O2(g)           -61.22    -63.99   -2.77  O2

**For a gas, SI = log10(fugacity). Fugacity = pressure * phi / 1 atm.
  For ideal gases, phi = 1.

Reaction step 2.

Using solution 1.	
Using temperature 1.	
Using pressure 1.	
Using reaction 1.	

Reaction 1.	

	  5.035e-01 moles of the following reaction have been added:

	                 Relative
	Reactant            moles

	KHCO3                1.00000

	                 Relative
	Element             moles
	C                    1.00000
	H                    1.00000
	K                    1.00000
	O                    3.00000

-----------------------------Solution composition------------------------------

	Elements           Molality       Moles

	C                 5.034e-01   5.035e-01
	K                 5.034e-01   5.035e-01

----------------------------Description of solution----------------------------

                                       pH  =   8.153      Charge balance
                                       pe  =  11.618      Adjusted to redox equilibrium
      Specific Conductance (µS/cm,  10°C)  = 29687
                          Density (g/cm³)  =   1.03265
                               Volume (L)  =   1.01720
                        Viscosity (mPa s)  =   1.34357
                        Activity of water  =   0.983
                 Ionic strength (mol/kgw)  =   4.787e-01
                       Mass of water (kg)  =   1.000e+00
                 Total alkalinity (eq/kg)  =   5.034e-01
                       Total CO2 (mol/kg)  =   5.034e-01
                         Temperature (°C)  =  10.00
                  Electrical balance (eq)  =  -1.515e-10
 Percent error, 100*(Cat-|An|)/(Cat+|An|)  =  -0.00
                               Iterations  =  13
                                  Total H  = 1.115159e+02
                                  Total O  = 5.701666e+01

----------------------------Distribution of species----------------------------

                                               Log       Log       Log    mole V
   Species          Molality    Activity  Molality  Activity     Gamma   cm³/mol

   OH-             6.408e-07   4.114e-07    -6.193    -6.386    -0.192     -3.95
   H+              9.136e-09   7.032e-09    -8.039    -8.153    -0.114      0.00
   H2O             5.551e+01   9.834e-01     1.744    -0.007     0.000     18.02
C(-4)         0.000e+00
   CH4             0.000e+00   0.000e+00  -133.879  -133.831     0.048     33.98
C(4)          5.034e-01
   HCO3-           4.599e-01   3.244e-01    -0.337    -0.489    -0.152     25.53
   KHCO3           3.097e-02   3.458e-02    -1.509    -1.461     0.048     20.03
   CO2             6.270e-03   6.743e-03    -2.203    -2.171     0.032     34.06
   CO3-2           6.270e-03   1.500e-03    -2.203    -2.824    -0.621     -3.41
   (CO2)2          2.882e-07   3.099e-07    -6.540    -6.509     0.032     67.29
H(0)          0.000e+00
   H2              0.000e+00   0.000e+00   -42.673   -42.623     0.050     13.63
K             5.034e-01
   K+              4.725e-01   3.084e-01    -0.326    -0.511    -0.185      8.94
   KHCO3           3.097e-02   3.458e-02    -1.509    -1.461     0.048     20.03
O(0)          7.240e-13
   O2              3.620e-13   4.042e-13   -12.441   -12.393     0.048     28.95

------------------------------Saturation indices-------------------------------

  Phase               SI** log IAP   log K(283 K,   1 atm)

  CH4(g)         -131.20   -133.83   -2.63  CH4
  CO2(g)           -0.90     -2.17   -1.27  CO2
  H2(g)           -39.56    -42.62   -3.06  H2
  H2O(g)           -1.92     -0.01    1.91  H2O
  O2(g)            -9.63    -12.39   -2.77  O2

**For a gas, SI = log10(fugacity). Fugacity = pressure * phi / 1 atm.
  For ideal gases, phi = 1.

Reaction step 3.

Using solution 1.	
Using temperature 1.	
Using pressure 1.	
Using reaction 1.	

Reaction 1.	

	  3.017e-01 moles of the following reaction have been added:

	                 Relative
	Reactant            moles

	KHCO3                1.00000

	                 Relative
	Element             moles
	C                    1.00000
	H                    1.00000
	K                    1.00000
	O                    3.00000

-----------------------------Solution composition------------------------------

	Elements           Molality       Moles

	C                 3.017e-01   3.017e-01
	K                 3.017e-01   3.017e-01

----------------------------Description of solution----------------------------

                                       pH  =   8.192      Charge balance
                                       pe  =  11.568      Adjusted to redox equilibrium
      Specific Conductance (µS/cm,  10°C)  = 18896
                          Density (g/cm³)  =   1.01977
                               Volume (L)  =   1.01023
                        Viscosity (mPa s)  =   1.32574
                        Activity of water  =   0.990
                 Ionic strength (mol/kgw)  =   2.922e-01
                       Mass of water (kg)  =   1.000e+00
                 Total alkalinity (eq/kg)  =   3.017e-01
                       Total CO2 (mol/kg)  =   3.017e-01
                         Temperature (°C)  =  10.00
                  Electrical balance (eq)  =  -1.904e-10
 Percent error, 100*(Cat-|An|)/(Cat+|An|)  =  -0.00
                               Iterations  =  13
                                  Total H  = 1.113141e+02
                                  Total O  = 5.641129e+01

----------------------------Distribution of species----------------------------

                                               Log       Log       Log    mole V
   Species          Molality    Activity  Molality  Activity     Gamma   cm³/mol

   OH-             6.653e-07   4.535e-07    -6.177    -6.343    -0.166     -4.28
   H+              8.159e-09   6.421e-09    -8.088    -8.192    -0.104      0.00
   H2O             5.551e+01   9.900e-01     1.744    -0.004     0.000     18.02
C(-4)         0.000e+00
   CH4             0.000e+00   0.000e+00  -134.023  -133.993     0.029     33.98
C(4)          3.017e-01
   HCO3-           2.810e-01   2.057e-01    -0.551    -0.687    -0.136     24.73
   KHCO3           1.320e-02   1.412e-02    -1.879    -1.850     0.029     20.03
   CO2             3.709e-03   3.877e-03    -2.431    -2.411     0.019     34.06
   CO3-2           3.708e-03   1.042e-03    -2.431    -2.982    -0.551     -4.21
   (CO2)2          9.803e-08   1.025e-07    -7.009    -6.989     0.019     67.29
H(0)          0.000e+00
   H2              0.000e+00   0.000e+00   -42.633   -42.602     0.031     13.63
K             3.017e-01
   K+              2.885e-01   1.986e-01    -0.540    -0.702    -0.162      8.80
   KHCO3           1.320e-02   1.412e-02    -1.879    -1.850     0.029     20.03
O(0)          6.958e-13
   O2              3.479e-13   3.721e-13   -12.459   -12.429     0.029     28.95

------------------------------Saturation indices-------------------------------

  Phase               SI** log IAP   log K(283 K,   1 atm)

  CH4(g)         -131.36   -133.99   -2.63  CH4
  CO2(g)           -1.14     -2.41   -1.27  CO2
  H2(g)           -39.54    -42.60   -3.06  H2
  H2O(g)           -1.91     -0.00    1.91  H2O
  O2(g)            -9.66    -12.43   -2.77  O2

**For a gas, SI = log10(fugacity). Fugacity = pressure * phi / 1 atm.
  For ideal gases, phi = 1.

Reaction step 4.

Using solution 1.	
Using temperature 1.	
Using pressure 1.	
Using reaction 1.	

Reaction 1.	

	  1.505e-01 moles of the following reaction have been added:

	                 Relative
	Reactant            moles

	KHCO3                1.00000

	                 Relative
	Element             moles
	C                    1.00000
	H                    1.00000
	K                    1.00000
	O                    3.00000

-----------------------------Solution composition------------------------------

	Elements           Molality       Moles

	C                 1.505e-01   1.505e-01
	K                 1.505e-01   1.505e-01

----------------------------Description of solution----------------------------

                                       pH  =   8.243      Charge balance
                                       pe  =  11.508      Adjusted to redox equilibrium
      Specific Conductance (µS/cm,  10°C)  = 10049
                          Density (g/cm³)  =   1.00985
                               Volume (L)  =   1.00517
                        Viscosity (mPa s)  =   1.31512
                        Activity of water  =   0.995
                 Ionic strength (mol/kgw)  =   1.483e-01
                       Mass of water (kg)  =   1.000e+00
                 Total alkalinity (eq/kg)  =   1.505e-01
                       Total CO2 (mol/kg)  =   1.505e-01
                         Temperature (°C)  =  10.00
                  Electrical balance (eq)  =  -2.920e-10
 Percent error, 100*(Cat-|An|)/(Cat+|An|)  =  -0.00
                               Iterations  =  13
                                  Total H  = 1.111629e+02
                                  Total O  = 5.595772e+01

----------------------------Distribution of species----------------------------

                                               Log       Log       Log    mole V
   Species          Molality    Activity  Molality  Activity     Gamma   cm³/mol

   OH-             6.963e-07   5.124e-07    -6.157    -6.290    -0.133     -4.56
   H+              7.027e-09   5.711e-09    -8.153    -8.243    -0.090      0.00
   H2O             5.551e+01   9.950e-01     1.744    -0.002     0.000     18.02
C(-4)         0.000e+00
   CH4             0.000e+00   0.000e+00  -134.268  -134.253     0.015     33.98
C(4)          1.505e-01
   HCO3-           1.429e-01   1.102e-01    -0.845    -0.958    -0.113     24.03
   KHCO3           3.987e-03   4.126e-03    -2.399    -2.384     0.015     20.03
   CO2             1.797e-03   1.838e-03    -2.746    -2.736     0.010     34.06
   CO3-2           1.796e-03   6.271e-04    -2.746    -3.203    -0.457     -5.01
   (CO2)2          2.251e-08   2.302e-08    -7.648    -7.638     0.010     67.29
H(0)          0.000e+00
   H2              0.000e+00   0.000e+00   -42.600   -42.585     0.016     13.63
K             1.505e-01
   K+              1.465e-01   1.084e-01    -0.834    -0.965    -0.131      8.67
   KHCO3           3.987e-03   4.126e-03    -2.399    -2.384     0.015     20.03
O(0)          6.711e-13
   O2              3.356e-13   3.472e-13   -12.474   -12.459     0.015     28.95

------------------------------Saturation indices-------------------------------

  Phase               SI** log IAP   log K(283 K,   1 atm)

  CH4(g)         -131.62   -134.25   -2.63  CH4
  CO2(g)           -1.47     -2.74   -1.27  CO2
  H2(g)           -39.52    -42.58   -3.06  H2
  H2O(g)           -1.91     -0.00    1.91  H2O
  O2(g)            -9.69    -12.46   -2.77  O2

**For a gas, SI = log10(fugacity). Fugacity = pressure * phi / 1 atm.
  For ideal gases, phi = 1.

Reaction step 5.

Using solution 1.	
Using temperature 1.	
Using pressure 1.	
Using reaction 1.	

Reaction 1.	

	  8.064e-02 moles of the following reaction have been added:

	                 Relative
	Reactant            moles

	KHCO3                1.00000

	                 Relative
	Element             moles
	C                    1.00000
	H                    1.00000
	K                    1.00000
	O                    3.00000

-----------------------------Solution composition------------------------------

	Elements           Molality       Moles

	C                 8.064e-02   8.064e-02
	K                 8.064e-02   8.064e-02

----------------------------Description of solution----------------------------

                                       pH  =   8.285      Charge balance
                                       pe  =  -2.308      Adjusted to redox equilibrium
      Specific Conductance (µS/cm,  10°C)  = 5633
                          Density (g/cm³)  =   1.00518
                               Volume (L)  =   1.00288
                        Viscosity (mPa s)  =   1.31101
                        Activity of water  =   0.997
                 Ionic strength (mol/kgw)  =   8.025e-02
                       Mass of water (kg)  =   1.000e+00
                 Total alkalinity (eq/kg)  =   8.064e-02
                       Total CO2 (mol/kg)  =   8.064e-02
                         Temperature (°C)  =  10.00
                  Electrical balance (eq)  =   1.689e-10
 Percent error, 100*(Cat-|An|)/(Cat+|An|)  =   0.00
                               Iterations  =  12
                                  Total H  = 1.110931e+02
                                  Total O  = 5.574814e+01

----------------------------Distribution of species----------------------------

                                               Log       Log       Log    mole V
   Species          Molality    Activity  Molality  Activity     Gamma   cm³/mol

   OH-             7.231e-07   5.657e-07    -6.141    -6.247    -0.107     -4.72
   H+              6.192e-09   5.186e-09    -8.208    -8.285    -0.077      0.00
   H2O             5.551e+01   9.973e-01     1.744    -0.001     0.000     18.02
C(-4)         4.408e-25
   CH4             4.408e-25   4.490e-25   -24.356   -24.348     0.008     33.98
C(4)          8.064e-02
   HCO3-           7.746e-02   6.246e-02    -1.111    -1.204    -0.093     23.64
   KHCO3           1.319e-03   1.343e-03    -2.880    -2.872     0.008     20.03
   CO2             9.324e-04   9.439e-04    -3.030    -3.025     0.005     34.06
   CO3-2           9.317e-04   3.917e-04    -3.031    -3.407    -0.376     -5.52
   (CO2)2          6.000e-09   6.073e-09    -8.222    -8.217     0.005     67.29
H(0)          1.808e-15
   H2              9.039e-16   9.216e-16   -15.044   -15.035     0.008     13.63
K             8.064e-02
   K+              7.932e-02   6.223e-02    -1.101    -1.206    -0.105      8.59
   KHCO3           1.319e-03   1.343e-03    -2.880    -2.872     0.008     20.03
O(0)          0.000e+00
   O2              0.000e+00   0.000e+00   -67.564   -67.556     0.008     28.95

------------------------------Saturation indices-------------------------------

  Phase               SI** log IAP   log K(283 K,   1 atm)

  CH4(g)          -21.72    -24.35   -2.63  CH4
  CO2(g)           -1.76     -3.03   -1.27  CO2
  H2(g)           -11.97    -15.04   -3.06  H2
  H2O(g)           -1.91     -0.00    1.91  H2O
  O2(g)           -64.79    -67.56   -2.77  O2

**For a gas, SI = log10(fugacity). Fugacity = pressure * phi / 1 atm.
  For ideal gases, phi = 1.

Reaction step 6.

Using solution 1.	
Using temperature 1.	
Using pressure 1.	
Using reaction 1.	

Reaction 1.	

	  5.045e-02 moles of the following reaction have been added:

	                 Relative
	Reactant            moles

	KHCO3                1.00000

	                 Relative
	Element             moles
	C                    1.00000
	H                    1.00000
	K                    1.00000
	O                    3.00000

-----------------------------Solution composition------------------------------

	Elements           Molality       Moles

	C                 5.045e-02   5.045e-02
	K                 5.045e-02   5.045e-02

----------------------------Description of solution----------------------------

                                       pH  =   8.314      Charge balance
                                       pe  =  10.794      Adjusted to redox equilibrium
      Specific Conductance (µS/cm,  10°C)  = 3624
                          Density (g/cm³)  =   1.00314
                               Volume (L)  =   1.00191
                        Viscosity (mPa s)  =   1.30934
                        Activity of water  =   0.998
                 Ionic strength (mol/kgw)  =   5.045e-02
                       Mass of water (kg)  =   1.000e+00
                 Total alkalinity (eq/kg)  =   5.045e-02
                       Total CO2 (mol/kg)  =   5.045e-02
                         Temperature (°C)  =  10.00
                  Electrical balance (eq)  =   1.482e-16
 Percent error, 100*(Cat-|An|)/(Cat+|An|)  =   0.00
                               Iterations  =  15
                                  Total H  = 1.110629e+02
                                  Total O  = 5.565757e+01

----------------------------Distribution of species----------------------------

                                               Log       Log       Log    mole V
   Species          Molality    Activity  Molality  Activity     Gamma   cm³/mol

   OH-             7.424e-07   6.048e-07    -6.129    -6.218    -0.089     -4.80
   H+              5.670e-09   4.855e-09    -8.246    -8.314    -0.067      0.00
   H2O             5.551e+01   9.983e-01     1.744    -0.001     0.000     18.02
C(-4)         0.000e+00
   CH4             0.000e+00   0.000e+00  -129.620  -129.615     0.005     33.98
C(4)          5.045e-02
   HCO3-           4.875e-02   4.057e-02    -1.312    -1.392    -0.080     23.44
   CO2             5.691e-04   5.735e-04    -3.245    -3.241     0.003     34.06
   CO3-2           5.684e-04   2.717e-04    -3.245    -3.566    -0.321     -5.81
   KHCO3           5.643e-04   5.709e-04    -3.248    -3.243     0.005     20.03
   (CO2)2          2.225e-09   2.242e-09    -8.653    -8.649     0.003     67.29
H(0)          0.000e+00
   H2              0.000e+00   0.000e+00   -41.303   -41.298     0.005     13.63
K             5.045e-02
   K+              4.989e-02   4.071e-02    -1.302    -1.390    -0.088      8.54
   KHCO3           5.643e-04   5.709e-04    -3.248    -3.243     0.005     20.03
O(0)          1.845e-15
   O2              9.224e-16   9.332e-16   -15.035   -15.030     0.005     28.95

------------------------------Saturation indices-------------------------------

  Phase               SI** log IAP   log K(283 K,   1 atm)

  CH4(g)         -126.98   -129.61   -2.63  CH4
  CO2(g)           -1.97     -3.24   -1.27  CO2
  H2(g)           -38.24    -41.30   -3.06  H2
  H2O(g)           -1.91     -0.00    1.91  H2O
  O2(g)           -12.26    -15.03   -2.77  O2

**For a gas, SI = log10(fugacity). Fugacity = pressure * phi / 1 atm.
  For ideal gases, phi = 1.

Reaction step 7.

Using solution 1.	
Using temperature 1.	
Using pressure 1.	
Using reaction 1.	

Reaction 1.	

	  3.015e-02 moles of the following reaction have been added:

	                 Relative
	Reactant            moles

	KHCO3                1.00000

	                 Relative
	Element             moles
	C                    1.00000
	H                    1.00000
	K                    1.00000
	O                    3.00000

-----------------------------Solution composition------------------------------

	Elements           Molality       Moles

	C                 3.015e-02   3.015e-02
	K                 3.015e-02   3.015e-02

----------------------------Description of solution----------------------------

                                       pH  =   8.342      Charge balance
                                       pe  =  -2.774      Adjusted to redox equilibrium
      Specific Conductance (µS/cm,  10°C)  = 2223
                          Density (g/cm³)  =   1.00176
                               Volume (L)  =   1.00126
                        Viscosity (mPa s)  =   1.30821
                        Activity of water  =   0.999
                 Ionic strength (mol/kgw)  =   3.026e-02
                       Mass of water (kg)  =   1.000e+00
                 Total alkalinity (eq/kg)  =   3.015e-02
                       Total CO2 (mol/kg)  =   3.015e-02
                         Temperature (°C)  =  10.00
                  Electrical balance (eq)  =  -2.224e-10
 Percent error, 100*(Cat-|An|)/(Cat+|An|)  =  -0.00
                               Iterations  =  11
                                  Total H  = 1.110426e+02
                                  Total O  = 5.559667e+01

----------------------------Distribution of species----------------------------

                                               Log       Log       Log    mole V
   Species          Molality    Activity  Molality  Activity     Gamma   cm³/mol

   OH-             7.623e-07   6.455e-07    -6.118    -6.190    -0.072     -4.86
   H+              5.195e-09   4.553e-09    -8.284    -8.342    -0.057      0.00
   H2O             5.551e+01   9.990e-01     1.744    -0.000     0.000     18.02
C(-4)         2.956e-22
   CH4             2.956e-22   2.977e-22   -21.529   -21.526     0.003     33.98
C(4)          3.015e-02
   HCO3-           2.927e-02   2.514e-02    -1.534    -1.600    -0.066     23.29
   CO2             3.314e-04   3.330e-04    -3.480    -3.478     0.002     34.06
   CO3-2           3.307e-04   1.796e-04    -3.481    -3.746    -0.265     -6.06
   KHCO3           2.189e-04   2.204e-04    -3.660    -3.657     0.003     20.03
   (CO2)2          7.523e-10   7.557e-10    -9.124    -9.122     0.002     67.29
H(0)          1.206e-14
   H2              6.029e-15   6.073e-15   -14.220   -14.217     0.003     13.63
K             3.015e-02
   K+              2.993e-02   2.537e-02    -1.524    -1.596    -0.072      8.50
   KHCO3           2.189e-04   2.204e-04    -3.660    -3.657     0.003     20.03
O(0)          0.000e+00
   O2              0.000e+00   0.000e+00   -69.195   -69.192     0.003     28.95

------------------------------Saturation indices-------------------------------

  Phase               SI** log IAP   log K(283 K,   1 atm)

  CH4(g)          -18.89    -21.53   -2.63  CH4
  CO2(g)           -2.21     -3.48   -1.27  CO2
  H2(g)           -11.15    -14.22   -3.06  H2
  H2O(g)           -1.91     -0.00    1.91  H2O
  O2(g)           -66.43    -69.19   -2.77  O2

**For a gas, SI = log10(fugacity). Fugacity = pressure * phi / 1 atm.
  For ideal gases, phi = 1.

Reaction step 8.

Using solution 1.	
Using temperature 1.	
Using pressure 1.	
Using reaction 1.	

Reaction 1.	

	  1.505e-02 moles of the following reaction have been added:

	                 Relative
	Reactant            moles

	KHCO3                1.00000

	                 Relative
	Element             moles
	C                    1.00000
	H                    1.00000
	K                    1.00000
	O                    3.00000

-----------------------------Solution composition------------------------------

	Elements           Molality       Moles

	C                 1.505e-02   1.505e-02
	K                 1.505e-02   1.505e-02

----------------------------Description of solution----------------------------

                                       pH  =   8.373      Charge balance
                                       pe  =  -2.509      Adjusted to redox equilibrium
      Specific Conductance (µS/cm,  10°C)  = 1141
                          Density (g/cm³)  =   1.00073
                               Volume (L)  =   1.00078
                        Viscosity (mPa s)  =   1.30732
                        Activity of water  =   0.999
                 Ionic strength (mol/kgw)  =   1.515e-02
                       Mass of water (kg)  =   1.000e+00
                 Total alkalinity (eq/kg)  =   1.505e-02
                       Total CO2 (mol/kg)  =   1.505e-02
                         Temperature (°C)  =  10.00
                  Electrical balance (eq)  =   5.381e-13
 Percent error, 100*(Cat-|An|)/(Cat+|An|)  =   0.00
                               Iterations  =  13
                                  Total H  = 1.110275e+02
                                  Total O  = 5.555137e+01

----------------------------Distribution of species----------------------------

                                               Log       Log       Log    mole V
   Species          Molality    Activity  Molality  Activity     Gamma   cm³/mol

   OH-             7.862e-07   6.947e-07    -6.104    -6.158    -0.054     -4.92
   H+              4.694e-09   4.232e-09    -8.328    -8.373    -0.045      0.00
   H2O             5.551e+01   9.995e-01     1.744    -0.000     0.000     18.02
C(-4)         6.039e-25
   CH4             6.039e-25   6.060e-25   -24.219   -24.218     0.002     33.98
C(4)          1.505e-02
   HCO3-           1.467e-02   1.307e-02    -1.834    -1.884    -0.050     23.16
   CO2             1.604e-04   1.608e-04    -3.795    -3.794     0.001     34.06
   CO3-2           1.597e-04   1.004e-04    -3.797    -3.998    -0.201     -6.30
   KHCO3           5.965e-05   5.986e-05    -4.224    -4.223     0.002     20.03
   (CO2)2          1.759e-10   1.763e-10    -9.755    -9.754     0.001     67.29
H(0)          3.084e-15
   H2              1.542e-15   1.548e-15   -14.812   -14.810     0.002     13.63
K             1.505e-02
   K+              1.499e-02   1.325e-02    -1.824    -1.878    -0.054      8.46
   KHCO3           5.965e-05   5.986e-05    -4.224    -4.223     0.002     20.03
O(0)          0.000e+00
   O2              0.000e+00   0.000e+00   -68.006   -68.004     0.002     28.95

------------------------------Saturation indices-------------------------------

  Phase               SI** log IAP   log K(283 K,   1 atm)

  CH4(g)          -21.59    -24.22   -2.63  CH4
  CO2(g)           -2.52     -3.79   -1.27  CO2
  H2(g)           -11.75    -14.81   -3.06  H2
  H2O(g)           -1.91     -0.00    1.91  H2O
  O2(g)           -65.24    -68.00   -2.77  O2

**For a gas, SI = log10(fugacity). Fugacity = pressure * phi / 1 atm.
  For ideal gases, phi = 1.

------------------
End of simulation.
------------------

------------------------------------
Reading input data for simulation 4.
------------------------------------

	USE solution 1
	REACTION_TEMPERATURE
	 15.000000
	REACTION_PRESSURE
	 1.000000
	REACTION
	 KHCO3 1
	0  0.50348 0.30169 0.15050 0.08064 0.05045 0.03015 0.01505
	USER_GRAPH
	 -headings 15.oC
	10 data 0, 34.16, 33.49, 32.75, 32.77, 32.22, 32.43, 33.48
	20 dim d(8)
	30 read d(1), d(2), d(3), d(4), d(5), d(6), d(7), d(8),
	40 if step_no = 1 then put(rho, 10)
	50 if step_no > 1 then Vmol = (1e3 + tot("K") * 100.1211) / (tot("K") * rho) - 1e3 / (tot("K") * get(10))
	60 if step_no = 1 then dif = 0 else dif = Vmol - d(step_no)
	62 if step_no = 1 then goto 90
	70 plot_xy tot("K"), d(step_no), line_w = 0, color = Magenta #aph_x tot("K") # dif, str$(tc), str$(pressure), str$(step_no + get(1))
	80 plot_xy tot("K"), Vmol, symbol = None, color = Magenta  #step_no = 93 then put(step_no + get(1), 1)
	 90 end
	END
-----------------------------------------
Beginning of batch-reaction calculations.
-----------------------------------------

Reaction step 1.

Using solution 1.	
Using temperature 1.	
Using pressure 1.	
Using reaction 1.	

Reaction 1.	

	  0.000e+00 moles of the following reaction have been added:

	                 Relative
	Reactant            moles

	KHCO3                1.00000

	                 Relative
	Element             moles
	C                    1.00000
	H                    1.00000
	K                    1.00000
	O                    3.00000

-----------------------------Solution composition------------------------------

	Elements           Molality       Moles

	Pure water     

----------------------------Description of solution----------------------------

                                       pH  =   7.172      Charge balance
                                       pe  =  -0.315      Adjusted to redox equilibrium
      Specific Conductance (µS/cm,  15°C)  = 0
                          Density (g/cm³)  =   0.99910
                               Volume (L)  =   1.00090
                        Viscosity (mPa s)  =   1.13757
                        Activity of water  =   1.000
                 Ionic strength (mol/kgw)  =   6.737e-08
                       Mass of water (kg)  =   1.000e+00
                 Total alkalinity (eq/kg)  =   9.842e-17
                         Temperature (°C)  =  15.00
                  Electrical balance (eq)  =  -9.842e-17
 Percent error, 100*(Cat-|An|)/(Cat+|An|)  =  -0.00
                               Iterations  =   7
                                  Total H  = 1.110124e+02
                                  Total O  = 5.550622e+01

----------------------------Distribution of species----------------------------

                                               Log       Log       Log    mole V
   Species          Molality    Activity  Molality  Activity     Gamma   cm³/mol

   OH-             6.737e-08   6.735e-08    -7.172    -7.172    -0.000     -4.65
   H+              6.737e-08   6.735e-08    -7.172    -7.172    -0.000      0.00
   H2O             5.551e+01   1.000e+00     1.744    -0.000     0.000     18.03
H(0)          3.042e-17
   H2              1.521e-17   1.521e-17   -16.818   -16.818     0.000     14.15
O(0)          0.000e+00
   O2              0.000e+00   0.000e+00   -62.169   -62.169     0.000     29.51

------------------------------Saturation indices-------------------------------

  Phase               SI** log IAP   log K(288 K,   1 atm)

  H2(g)           -13.74    -16.82   -3.08  H2
  H2O(g)           -1.77     -0.00    1.77  H2O
  O2(g)           -59.36    -62.17   -2.81  O2

**For a gas, SI = log10(fugacity). Fugacity = pressure * phi / 1 atm.
  For ideal gases, phi = 1.

Reaction step 2.

Using solution 1.	
Using temperature 1.	
Using pressure 1.	
Using reaction 1.	

Reaction 1.	

	  5.035e-01 moles of the following reaction have been added:

	                 Relative
	Reactant            moles

	KHCO3                1.00000

	                 Relative
	Element             moles
	C                    1.00000
	H                    1.00000
	K                    1.00000
	O                    3.00000

-----------------------------Solution composition------------------------------

	Elements           Molality       Moles

	C                 5.034e-01   5.035e-01
	K                 5.034e-01   5.035e-01

----------------------------Description of solution----------------------------

                                       pH  =   8.099      Charge balance
                                       pe  =  10.656      Adjusted to redox equilibrium
      Specific Conductance (µS/cm,  15°C)  = 33591
                          Density (g/cm³)  =   1.03164
                               Volume (L)  =   1.01820
                        Viscosity (mPa s)  =   1.17945
                        Activity of water  =   0.983
                 Ionic strength (mol/kgw)  =   4.764e-01
                       Mass of water (kg)  =   1.000e+00
                 Total alkalinity (eq/kg)  =   5.034e-01
                       Total CO2 (mol/kg)  =   5.034e-01
                         Temperature (°C)  =  15.00
                  Electrical balance (eq)  =   3.403e-12
 Percent error, 100*(Cat-|An|)/(Cat+|An|)  =   0.00
                               Iterations  =  15
                                  Total H  = 1.115159e+02
                                  Total O  = 5.701666e+01

----------------------------Distribution of species----------------------------

                                               Log       Log       Log    mole V
   Species          Molality    Activity  Molality  Activity     Gamma   cm³/mol

   OH-             8.755e-07   5.608e-07    -6.058    -6.251    -0.193     -3.54
   H+              1.035e-08   7.956e-09    -7.985    -8.099    -0.114      0.00
   H2O             5.551e+01   9.835e-01     1.744    -0.007     0.000     18.03
C(-4)         0.000e+00
   CH4             0.000e+00   0.000e+00  -126.467  -126.419     0.048     34.53
C(4)          5.034e-01
   HCO3-           4.574e-01   3.220e-01    -0.340    -0.492    -0.152     26.19
   KHCO3           3.335e-02   3.722e-02    -1.477    -1.429     0.048     20.57
   CO2             6.356e-03   6.833e-03    -2.197    -2.165     0.031     34.32
   CO3-2           6.356e-03   1.509e-03    -2.197    -2.821    -0.624     -2.55
   (CO2)2          4.057e-07   4.361e-07    -6.392    -6.360     0.031     67.80
H(0)          0.000e+00
   H2              0.000e+00   0.000e+00   -40.667   -40.617     0.050     14.15
K             5.034e-01
   K+              4.701e-01   3.061e-01    -0.328    -0.514    -0.186      9.17
   KHCO3           3.335e-02   3.722e-02    -1.477    -1.429     0.048     20.57
O(0)          4.644e-15
   O2              2.322e-15   2.591e-15   -14.634   -14.586     0.048     29.51

------------------------------Saturation indices-------------------------------

  Phase               SI** log IAP   log K(288 K,   1 atm)

  CH4(g)         -123.72   -126.42   -2.70  CH4
  CO2(g)           -0.82     -2.17   -1.34  CO2
  H2(g)           -37.54    -40.62   -3.08  H2
  H2O(g)           -1.78     -0.01    1.77  H2O
  O2(g)           -11.77    -14.59   -2.81  O2

**For a gas, SI = log10(fugacity). Fugacity = pressure * phi / 1 atm.
  For ideal gases, phi = 1.

Reaction step 3.

Using solution 1.	
Using temperature 1.	
Using pressure 1.	
Using reaction 1.	

Reaction 1.	

	  3.017e-01 moles of the following reaction have been added:

	                 Relative
	Reactant            moles

	KHCO3                1.00000

	                 Relative
	Element             moles
	C                    1.00000
	H                    1.00000
	K                    1.00000
	O                    3.00000

-----------------------------Solution composition------------------------------

	Elements           Molality       Moles

	C                 3.017e-01   3.017e-01
	K                 3.017e-01   3.017e-01

----------------------------Description of solution----------------------------

                                       pH  =   8.139      Charge balance
                                       pe  =  10.625      Adjusted to redox equilibrium
      Specific Conductance (µS/cm,  15°C)  = 21437
                          Density (g/cm³)  =   1.01891
                               Volume (L)  =   1.01108
                        Viscosity (mPa s)  =   1.15979
                        Activity of water  =   0.990
                 Ionic strength (mol/kgw)  =   2.912e-01
                       Mass of water (kg)  =   1.000e+00
                 Total alkalinity (eq/kg)  =   3.017e-01
                       Total CO2 (mol/kg)  =   3.017e-01
                         Temperature (°C)  =  15.00
                  Electrical balance (eq)  =   5.130e-13
 Percent error, 100*(Cat-|An|)/(Cat+|An|)  =   0.00
                               Iterations  =  15
                                  Total H  = 1.113141e+02
                                  Total O  = 5.641129e+01

----------------------------Distribution of species----------------------------

                                               Log       Log       Log    mole V
   Species          Molality    Activity  Molality  Activity     Gamma   cm³/mol

   OH-             9.090e-07   6.183e-07    -6.041    -6.209    -0.167     -3.87
   H+              9.242e-09   7.263e-09    -8.034    -8.139    -0.105      0.00
   H2O             5.551e+01   9.900e-01     1.744    -0.004     0.000     18.03
C(-4)         0.000e+00
   CH4             0.000e+00   0.000e+00  -126.757  -126.728     0.029     34.53
C(4)          3.017e-01
   HCO3-           2.799e-01   2.045e-01    -0.553    -0.689    -0.136     25.39
   KHCO3           1.426e-02   1.525e-02    -1.846    -1.817     0.029     20.57
   CO2             3.764e-03   3.935e-03    -2.424    -2.405     0.019     34.32
   CO3-2           3.764e-03   1.050e-03    -2.424    -2.979    -0.555     -3.34
   (CO2)2          1.384e-07   1.446e-07    -6.859    -6.840     0.019     67.80
H(0)          0.000e+00
   H2              0.000e+00   0.000e+00   -40.663   -40.632     0.031     14.15
K             3.017e-01
   K+              2.874e-01   1.975e-01    -0.541    -0.705    -0.163      9.04
   KHCO3           1.426e-02   1.525e-02    -1.846    -1.817     0.029     20.57
O(0)          5.283e-15
   O2              2.641e-15   2.825e-15   -14.578   -14.549     0.029     29.51

------------------------------Saturation indices-------------------------------

  Phase               SI** log IAP   log K(288 K,   1 atm)

  CH4(g)         -124.03   -126.73   -2.70  CH4
  CO2(g)           -1.06     -2.41   -1.34  CO2
  H2(g)           -37.56    -40.63   -3.08  H2
  H2O(g)           -1.77     -0.00    1.77  H2O
  O2(g)           -11.74    -14.55   -2.81  O2

**For a gas, SI = log10(fugacity). Fugacity = pressure * phi / 1 atm.
  For ideal gases, phi = 1.

Reaction step 4.

Using solution 1.	
Using temperature 1.	
Using pressure 1.	
Using reaction 1.	

Reaction 1.	

	  1.505e-01 moles of the following reaction have been added:

	                 Relative
	Reactant            moles

	KHCO3                1.00000

	                 Relative
	Element             moles
	C                    1.00000
	H                    1.00000
	K                    1.00000
	O                    3.00000

-----------------------------Solution composition------------------------------

	Elements           Molality       Moles

	C                 1.505e-01   1.505e-01
	K                 1.505e-01   1.505e-01

----------------------------Description of solution----------------------------

                                       pH  =   8.190      Charge balance
                                       pe  =  10.583      Adjusted to redox equilibrium
      Specific Conductance (µS/cm,  15°C)  = 11427
                          Density (g/cm³)  =   1.00911
                               Volume (L)  =   1.00590
                        Viscosity (mPa s)  =   1.14780
                        Activity of water  =   0.995
                 Ionic strength (mol/kgw)  =   1.480e-01
                       Mass of water (kg)  =   1.000e+00
                 Total alkalinity (eq/kg)  =   1.505e-01
                       Total CO2 (mol/kg)  =   1.505e-01
                         Temperature (°C)  =  15.00
                  Electrical balance (eq)  =   3.777e-14
 Percent error, 100*(Cat-|An|)/(Cat+|An|)  =   0.00
                               Iterations  =  15
                                  Total H  = 1.111629e+02
                                  Total O  = 5.595772e+01

----------------------------Distribution of species----------------------------

                                               Log       Log       Log    mole V
   Species          Molality    Activity  Molality  Activity     Gamma   cm³/mol

   OH-             9.514e-07   6.988e-07    -6.022    -6.156    -0.134     -4.16
   H+              7.956e-09   6.459e-09    -8.099    -8.190    -0.091      0.00
   H2O             5.551e+01   9.950e-01     1.744    -0.002     0.000     18.03
C(-4)         0.000e+00
   CH4             0.000e+00   0.000e+00  -127.144  -127.129     0.015     34.53
C(4)          1.505e-01
   HCO3-           1.425e-01   1.097e-01    -0.846    -0.960    -0.114     24.69
   KHCO3           4.319e-03   4.469e-03    -2.365    -2.350     0.015     20.57
   CO2             1.826e-03   1.867e-03    -2.739    -2.729     0.010     34.32
   CO3-2           1.825e-03   6.331e-04    -2.739    -3.198    -0.460     -4.13
   (CO2)2          3.186e-08   3.258e-08    -7.497    -7.487     0.010     67.80
H(0)          0.000e+00
   H2              0.000e+00   0.000e+00   -40.666   -40.651     0.016     14.15
K             1.505e-01
   K+              1.462e-01   1.079e-01    -0.835    -0.967    -0.132      8.91
   KHCO3           4.319e-03   4.469e-03    -2.365    -2.350     0.015     20.57
O(0)          5.999e-15
   O2              3.000e-15   3.104e-15   -14.523   -14.508     0.015     29.51

------------------------------Saturation indices-------------------------------

  Phase               SI** log IAP   log K(288 K,   1 atm)

  CH4(g)         -124.43   -127.13   -2.70  CH4
  CO2(g)           -1.39     -2.73   -1.34  CO2
  H2(g)           -37.57    -40.65   -3.08  H2
  H2O(g)           -1.77     -0.00    1.77  H2O
  O2(g)           -11.70    -14.51   -2.81  O2

**For a gas, SI = log10(fugacity). Fugacity = pressure * phi / 1 atm.
  For ideal gases, phi = 1.

Reaction step 5.

Using solution 1.	
Using temperature 1.	
Using pressure 1.	
Using reaction 1.	

Reaction 1.	

	  8.064e-02 moles of the following reaction have been added:

	                 Relative
	Reactant            moles

	KHCO3                1.00000

	                 Relative
	Element             moles
	C                    1.00000
	H                    1.00000
	K                    1.00000
	O                    3.00000

-----------------------------Solution composition------------------------------

	Elements           Molality       Moles

	C                 8.064e-02   8.064e-02
	K                 8.064e-02   8.064e-02

----------------------------Description of solution----------------------------

                                       pH  =   8.232      Charge balance
                                       pe  =  -2.269      Adjusted to redox equilibrium
      Specific Conductance (µS/cm,  15°C)  = 6414
                          Density (g/cm³)  =   1.00450
                               Volume (L)  =   1.00355
                        Viscosity (mPa s)  =   1.14312
                        Activity of water  =   0.997
                 Ionic strength (mol/kgw)  =   8.015e-02
                       Mass of water (kg)  =   1.000e+00
                 Total alkalinity (eq/kg)  =   8.064e-02
                       Total CO2 (mol/kg)  =   8.064e-02
                         Temperature (°C)  =  15.00
                  Electrical balance (eq)  =   1.949e-16
 Percent error, 100*(Cat-|An|)/(Cat+|An|)  =   0.00
                               Iterations  =  13
                                  Total H  = 1.110931e+02
                                  Total O  = 5.574814e+01

----------------------------Distribution of species----------------------------

                                               Log       Log       Log    mole V
   Species          Molality    Activity  Molality  Activity     Gamma   cm³/mol

   OH-             9.880e-07   7.717e-07    -6.005    -6.113    -0.107     -4.32
   H+              7.008e-09   5.862e-09    -8.154    -8.232    -0.077      0.00
   H2O             5.551e+01   9.973e-01     1.744    -0.001     0.000     18.03
C(-4)         1.121e-25
   CH4             1.121e-25   1.142e-25   -24.951   -24.943     0.008     34.53
C(4)          8.064e-02
   HCO3-           7.731e-02   6.225e-02    -1.112    -1.206    -0.094     24.30
   KHCO3           1.432e-03   1.458e-03    -2.844    -2.836     0.008     20.57
   CO2             9.483e-04   9.599e-04    -3.023    -3.018     0.005     34.32
   CO3-2           9.473e-04   3.960e-04    -3.024    -3.402    -0.379     -4.65
   (CO2)2          8.503e-09   8.607e-09    -8.070    -8.065     0.005     67.80
H(0)          1.826e-15
   H2              9.129e-16   9.308e-16   -15.040   -15.031     0.008     14.15
K             8.064e-02
   K+              7.921e-02   6.204e-02    -1.101    -1.207    -0.106      8.83
   KHCO3           1.432e-03   1.458e-03    -2.844    -2.836     0.008     20.57
O(0)          0.000e+00
   O2              0.000e+00   0.000e+00   -65.753   -65.745     0.008     29.51

------------------------------Saturation indices-------------------------------

  Phase               SI** log IAP   log K(288 K,   1 atm)

  CH4(g)          -22.25    -24.94   -2.70  CH4
  CO2(g)           -1.68     -3.02   -1.34  CO2
  H2(g)           -11.95    -15.03   -3.08  H2
  H2O(g)           -1.77     -0.00    1.77  H2O
  O2(g)           -62.93    -65.75   -2.81  O2

**For a gas, SI = log10(fugacity). Fugacity = pressure * phi / 1 atm.
  For ideal gases, phi = 1.

Reaction step 6.

Using solution 1.	
Using temperature 1.	
Using pressure 1.	
Using reaction 1.	

Reaction 1.	

	  5.045e-02 moles of the following reaction have been added:

	                 Relative
	Reactant            moles

	KHCO3                1.00000

	                 Relative
	Element             moles
	C                    1.00000
	H                    1.00000
	K                    1.00000
	O                    3.00000

-----------------------------Solution composition------------------------------

	Elements           Molality       Moles

	C                 5.045e-02   5.045e-02
[...]
   Species          Molality    Activity  Molality  Activity     Gamma   cm³/mol

   OH-             6.523e-05   4.205e-05    -4.186    -4.376    -0.191     -4.30
   H+              1.484e-08   1.129e-08    -7.829    -7.947    -0.119      0.00
   H2O             5.551e+01   9.903e-01     1.744    -0.004     0.000     18.73
C(-4)         0.000e+00
   CH4             0.000e+00   0.000e+00   -92.297   -92.270     0.027     40.63
C(4)          3.017e-01
   HCO3-           2.585e-01   1.807e-01    -0.587    -0.743    -0.156     27.30
   KHCO3           3.323e-02   3.539e-02    -1.478    -1.451     0.027     23.97
   CO2             4.977e-03   5.188e-03    -2.303    -2.285     0.018     38.73
   CO3-2           4.916e-03   1.149e-03    -2.308    -2.940    -0.631     -3.94
   (CO2)2          2.280e-06   2.377e-06    -5.642    -5.624     0.018     76.62
H(0)          2.367e-30
   H2              1.183e-30   1.264e-30   -29.927   -29.898     0.029     18.14
K             3.017e-01
   K+              2.684e-01   1.747e-01    -0.571    -0.758    -0.187     10.62
   KHCO3           3.323e-02   3.539e-02    -1.478    -1.451     0.027     23.97
O(0)          5.364e-15
   O2              2.682e-15   2.856e-15   -14.572   -14.544     0.027     33.72

------------------------------Saturation indices-------------------------------

  Phase               SI** log IAP   log K(368 K,   1 atm)

  CH4(g)          -89.26    -92.27   -3.01  CH4
  CO2(g)           -0.32     -2.29   -1.96  CO2
  H2(g)           -26.80    -29.90   -3.10  H2
  H2O(g)           -0.09     -0.00    0.08  H2O
  O2(g)           -11.43    -14.54   -3.11  O2

**For a gas, SI = log10(fugacity). Fugacity = pressure * phi / 1 atm.
  For ideal gases, phi = 1.

Reaction step 4.

Using solution 1.	
Using temperature 1.	
Using pressure 1.	
Using reaction 1.	

Reaction 1.	

	  1.505e-01 moles of the following reaction have been added:

	                 Relative
	Reactant            moles

	KHCO3                1.00000

	                 Relative
	Element             moles
	C                    1.00000
	H                    1.00000
	K                    1.00000
	O                    3.00000

-----------------------------Solution composition------------------------------

	Elements           Molality       Moles

	C                 1.505e-01   1.505e-01
	K                 1.505e-01   1.505e-01

----------------------------Description of solution----------------------------

                                       pH  =   7.999      Charge balance
                                       pe  =   5.260      Adjusted to redox equilibrium
      Specific Conductance (µS/cm,  95°C)  = 36691
                          Density (g/cm³)  =   0.97134
                               Volume (L)  =   1.04502
                        Viscosity (mPa s)  =   0.31025
                        Activity of water  =   0.995
                 Ionic strength (mol/kgw)  =   1.422e-01
                       Mass of water (kg)  =   1.000e+00
                 Total alkalinity (eq/kg)  =   1.505e-01
                       Total CO2 (mol/kg)  =   1.505e-01
                         Temperature (°C)  =  95.00
                  Electrical balance (eq)  =   6.225e-12
 Percent error, 100*(Cat-|An|)/(Cat+|An|)  =   0.00
                               Iterations  =   8
                                  Total H  = 1.111629e+02
                                  Total O  = 5.595772e+01

----------------------------Distribution of species----------------------------

                                               Log       Log       Log    mole V
   Species          Molality    Activity  Molality  Activity     Gamma   cm³/mol

   OH-             6.789e-05   4.761e-05    -4.168    -4.322    -0.154     -4.72
   H+              1.271e-08   1.001e-08    -7.896    -7.999    -0.104      0.00
   H2O             5.551e+01   9.951e-01     1.744    -0.002     0.000     18.73
C(-4)         0.000e+00
   CH4             0.000e+00   0.000e+00   -92.663   -92.649     0.014     40.63
C(4)          1.505e-01
   HCO3-           1.349e-01   9.985e-02    -0.870    -1.001    -0.131     26.27
   KHCO3           1.068e-02   1.103e-02    -1.972    -1.957     0.014     23.97
   CO2             2.478e-03   2.532e-03    -2.606    -2.597     0.009     38.73
   CO3-2           2.411e-03   7.159e-04    -2.618    -3.145    -0.527     -4.84
   (CO2)2          5.542e-07   5.663e-07    -6.256    -6.247     0.009     76.62
H(0)          2.355e-30
   H2              1.177e-30   1.219e-30   -29.929   -29.914     0.015     18.14
K             1.505e-01
   K+              1.398e-01   9.854e-02    -0.854    -1.006    -0.152     10.48
   KHCO3           1.068e-02   1.103e-02    -1.972    -1.957     0.014     23.97
O(0)          6.008e-15
   O2              3.004e-15   3.104e-15   -14.522   -14.508     0.014     33.72

------------------------------Saturation indices-------------------------------

  Phase               SI** log IAP   log K(368 K,   1 atm)

  CH4(g)          -89.64    -92.65   -3.01  CH4
  CO2(g)           -0.63     -2.60   -1.96  CO2
  H2(g)           -26.82    -29.91   -3.10  H2
  H2O(g)           -0.09     -0.00    0.08  H2O
  O2(g)           -11.39    -14.51   -3.11  O2

**For a gas, SI = log10(fugacity). Fugacity = pressure * phi / 1 atm.
  For ideal gases, phi = 1.

Reaction step 5.

Using solution 1.	
Using temperature 1.	
Using pressure 1.	
Using reaction 1.	

Reaction 1.	

	  8.064e-02 moles of the following reaction have been added:

	                 Relative
	Reactant            moles

	KHCO3                1.00000

	                 Relative
	Element             moles
	C                    1.00000
	H                    1.00000
	K                    1.00000
	O                    3.00000

-----------------------------Solution composition------------------------------

	Elements           Molality       Moles

	C                 8.064e-02   8.064e-02
	K                 8.064e-02   8.064e-02

----------------------------Description of solution----------------------------

                                       pH  =   8.040      Charge balance
                                       pe  =  -2.223      Adjusted to redox equilibrium
      Specific Conductance (µS/cm,  95°C)  = 21022
                          Density (g/cm³)  =   0.96699
                               Volume (L)  =   1.04249
                        Viscosity (mPa s)  =   0.30450
                        Activity of water  =   0.997
                 Ionic strength (mol/kgw)  =   7.819e-02
                       Mass of water (kg)  =   1.000e+00
                 Total alkalinity (eq/kg)  =   8.064e-02
                       Total CO2 (mol/kg)  =   8.064e-02
                         Temperature (°C)  =  95.00
                  Electrical balance (eq)  =   3.364e-17
 Percent error, 100*(Cat-|An|)/(Cat+|An|)  =   0.00
                               Iterations  =  13
                                  Total H  = 1.110931e+02
                                  Total O  = 5.574814e+01

----------------------------Distribution of species----------------------------

                                               Log       Log       Log    mole V
   Species          Molality    Activity  Molality  Activity     Gamma   cm³/mol

   OH-             6.978e-05   5.242e-05    -4.156    -4.280    -0.124     -4.98
   H+              1.119e-08   9.117e-09    -7.951    -8.040    -0.089      0.00
   H2O             5.551e+01   9.973e-01     1.744    -0.001     0.000     18.73
C(-4)         3.991e-34
   CH4             3.991e-34   4.064e-34   -33.399   -33.391     0.008     40.63
C(4)          8.064e-02
   HCO3-           7.438e-02   5.790e-02    -1.129    -1.237    -0.109     25.68
   KHCO3           3.696e-03   3.763e-03    -2.432    -2.424     0.008     23.97
   CO2             1.318e-03   1.334e-03    -2.880    -2.875     0.005     38.73
   CO3-2           1.248e-03   4.560e-04    -2.904    -3.341    -0.437     -5.48
   (CO2)2          1.553e-07   1.571e-07    -6.809    -6.804     0.005     76.62
H(0)          1.834e-15
   H2              9.169e-16   9.344e-16   -15.038   -15.029     0.008     18.14
K             8.064e-02
   K+              7.694e-02   5.796e-02    -1.114    -1.237    -0.123     10.37
   KHCO3           3.696e-03   3.763e-03    -2.432    -2.424     0.008     23.97
O(0)          0.000e+00
   O2              0.000e+00   0.000e+00   -44.283   -44.275     0.008     33.72

------------------------------Saturation indices-------------------------------

  Phase               SI** log IAP   log K(368 K,   1 atm)

  CH4(g)          -30.38    -33.39   -3.01  CH4
  CO2(g)           -0.91     -2.87   -1.96  CO2
  H2(g)           -11.93    -15.03   -3.10  H2
  H2O(g)           -0.08     -0.00    0.08  H2O
  O2(g)           -41.16    -44.28   -3.11  O2

**For a gas, SI = log10(fugacity). Fugacity = pressure * phi / 1 atm.
  For ideal gases, phi = 1.

Reaction step 6.

Using solution 1.	
Using temperature 1.	
Using pressure 1.	
Using reaction 1.	

Reaction 1.	

	  5.045e-02 moles of the following reaction have been added:

	                 Relative
	Reactant            moles

	KHCO3                1.00000

	                 Relative
	Element             moles
	C                    1.00000
	H                    1.00000
	K                    1.00000
	O                    3.00000

-----------------------------Solution composition------------------------------

	Elements           Molality       Moles

	C                 5.045e-02   5.045e-02
	K                 5.045e-02   5.045e-02

----------------------------Description of solution----------------------------

                                       pH  =   8.065      Charge balance
                                       pe  =   5.061      Adjusted to redox equilibrium
      Specific Conductance (µS/cm,  95°C)  = 13691
                          Density (g/cm³)  =   0.96509
                               Volume (L)  =   1.04141
                        Viscosity (mPa s)  =   0.30192
                        Activity of water  =   0.998
                 Ionic strength (mol/kgw)  =   4.958e-02
                       Mass of water (kg)  =   1.000e+00
                 Total alkalinity (eq/kg)  =   5.045e-02
                       Total CO2 (mol/kg)  =   5.045e-02
                         Temperature (°C)  =  95.00
                  Electrical balance (eq)  =   3.958e-16
 Percent error, 100*(Cat-|An|)/(Cat+|An|)  =   0.00
                               Iterations  =  10
                                  Total H  = 1.110629e+02
                                  Total O  = 5.565757e+01

----------------------------Distribution of species----------------------------

                                               Log       Log       Log    mole V
   Species          Molality    Activity  Molality  Activity     Gamma   cm³/mol

   OH-             7.060e-05   5.554e-05    -4.151    -4.255    -0.104     -5.12
   H+              1.032e-08   8.614e-09    -7.986    -8.065    -0.078      0.00
   H2O             5.551e+01   9.983e-01     1.744    -0.001     0.000     18.73
C(-4)         0.000e+00
   CH4             0.000e+00   0.000e+00   -92.073   -92.068     0.005     40.63
C(4)          5.045e-02
   HCO3-           4.725e-02   3.813e-02    -1.326    -1.419    -0.093     25.37
   KHCO3           1.626e-03   1.645e-03    -2.789    -2.784     0.005     23.97
   CO2             8.227e-04   8.289e-04    -3.085    -3.082     0.003     38.73
   CO3-2           7.522e-04   3.178e-04    -3.124    -3.498    -0.374     -5.87
   (CO2)2          6.024e-08   6.069e-08    -7.220    -7.217     0.003     76.62
H(0)          4.455e-30
   H2              2.228e-30   2.255e-30   -29.652   -29.647     0.005     18.14
K             5.045e-02
   K+              4.882e-02   3.847e-02    -1.311    -1.415    -0.103     10.30
   KHCO3           1.626e-03   1.645e-03    -2.789    -2.784     0.005     23.97
O(0)          1.805e-15
   O2              9.025e-16   9.129e-16   -15.045   -15.040     0.005     33.72

------------------------------Saturation indices-------------------------------

  Phase               SI** log IAP   log K(368 K,   1 atm)

  CH4(g)          -89.06    -92.07   -3.01  CH4
  CO2(g)           -1.12     -3.08   -1.96  CO2
  H2(g)           -26.55    -29.65   -3.10  H2
  H2O(g)           -0.08     -0.00    0.08  H2O
  O2(g)           -11.92    -15.04   -3.11  O2

**For a gas, SI = log10(fugacity). Fugacity = pressure * phi / 1 atm.
  For ideal gases, phi = 1.

Reaction step 7.

Using solution 1.	
Using temperature 1.	
Using pressure 1.	
Using reaction 1.	

Reaction 1.	

	  3.015e-02 moles of the following reaction have been added:

	                 Relative
	Reactant            moles

	KHCO3                1.00000

	                 Relative
	Element             moles
	C                    1.00000
	H                    1.00000
	K                    1.00000
	O                    3.00000

-----------------------------Solution composition------------------------------

	Elements           Molality       Moles

	C                 3.015e-02   3.015e-02
	K                 3.015e-02   3.015e-02

----------------------------Description of solution----------------------------

                                       pH  =   8.083      Charge balance
                                       pe  =  -2.673      Adjusted to redox equilibrium
      Specific Conductance (µS/cm,  95°C)  = 8483
                          Density (g/cm³)  =   0.96381
                               Volume (L)  =   1.04069
                        Viscosity (mPa s)  =   0.30013
                        Activity of water  =   0.999
                 Ionic strength (mol/kgw)  =   2.993e-02
                       Mass of water (kg)  =   1.000e+00
                 Total alkalinity (eq/kg)  =   3.015e-02
                       Total CO2 (mol/kg)  =   3.015e-02
                         Temperature (°C)  =  95.00
                  Electrical balance (eq)  =  -4.405e-13
 Percent error, 100*(Cat-|An|)/(Cat+|An|)  =  -0.00
                               Iterations  =  11
                                  Total H  = 1.110426e+02
                                  Total O  = 5.559667e+01

----------------------------Distribution of species----------------------------

                                               Log       Log       Log    mole V
   Species          Molality    Activity  Molality  Activity     Gamma   cm³/mol

   OH-             7.049e-05   5.797e-05    -4.152    -4.237    -0.085     -5.23
   H+              9.635e-09   8.259e-09    -8.016    -8.083    -0.067      0.00
   H2O             5.551e+01   9.990e-01     1.744    -0.000     0.000     18.73
C(-4)         2.709e-31
   CH4             2.709e-31   2.728e-31   -30.567   -30.564     0.003     40.63
C(4)          3.015e-02
   HCO3-           2.858e-02   2.391e-02    -1.544    -1.621    -0.077     25.13
   KHCO3           6.467e-04   6.512e-04    -3.189    -3.186     0.003     23.97
   CO2             4.958e-04   4.980e-04    -3.305    -3.303     0.002     38.73
   CO3-2           4.253e-04   2.079e-04    -3.371    -3.682    -0.311     -6.22
   (CO2)2          2.181e-08   2.191e-08    -7.661    -7.659     0.002     76.62
H(0)          1.209e-14
   H2              6.045e-15   6.089e-15   -14.219   -14.215     0.003     18.14
K             3.015e-02
   K+              2.950e-02   2.429e-02    -1.530    -1.615    -0.085     10.23
   KHCO3           6.467e-04   6.512e-04    -3.189    -3.186     0.003     23.97
O(0)          0.000e+00
   O2              0.000e+00   0.000e+00   -45.905   -45.902     0.003     33.72

------------------------------Saturation indices-------------------------------

  Phase               SI** log IAP   log K(368 K,   1 atm)

  CH4(g)          -27.55    -30.56   -3.01  CH4
  CO2(g)           -1.34     -3.30   -1.96  CO2
  H2(g)           -11.12    -14.22   -3.10  H2
  H2O(g)           -0.08     -0.00    0.08  H2O
  O2(g)           -42.79    -45.90   -3.11  O2

**For a gas, SI = log10(fugacity). Fugacity = pressure * phi / 1 atm.
  For ideal gases, phi = 1.

Reaction step 8.

Using solution 1.	
Using temperature 1.	
Using pressure 1.	
Using reaction 1.	

Reaction 1.	

	  1.505e-02 moles of the following reaction have been added:

	                 Relative
	Reactant            moles

	KHCO3                1.00000

	                 Relative
	Element             moles
	C                    1.00000
	H                    1.00000
	K                    1.00000
	O                    3.00000

-----------------------------Solution composition------------------------------

	Elements           Molality       Moles

	C                 1.505e-02   1.505e-02
	K                 1.505e-02   1.505e-02

----------------------------Description of solution----------------------------

                                       pH  =   8.088      Charge balance
                                       pe  =  -2.381      Adjusted to redox equilibrium
      Specific Conductance (µS/cm,  95°C)  = 4399
                          Density (g/cm³)  =   0.96285
                               Volume (L)  =   1.04015
                        Viscosity (mPa s)  =   0.29873
                        Activity of water  =   0.999
                 Ionic strength (mol/kgw)  =   1.506e-02
                       Mass of water (kg)  =   1.000e+00
                 Total alkalinity (eq/kg)  =   1.505e-02
                       Total CO2 (mol/kg)  =   1.505e-02
                         Temperature (°C)  =  95.00
                  Electrical balance (eq)  =   1.898e-14
 Percent error, 100*(Cat-|An|)/(Cat+|An|)  =   0.00
                               Iterations  =  13
                                  Total H  = 1.110275e+02
                                  Total O  = 5.555137e+01

----------------------------Distribution of species----------------------------

                                               Log       Log       Log    mole V
   Species          Molality    Activity  Molality  Activity     Gamma   cm³/mol

   OH-             6.781e-05   5.860e-05    -4.169    -4.232    -0.063     -5.34
   H+              9.230e-09   8.173e-09    -8.035    -8.088    -0.053      0.00
   H2O             5.551e+01   9.995e-01     1.744    -0.000     0.000     18.73
C(-4)         5.980e-34
   CH4             5.980e-34   6.001e-34   -33.223   -33.222     0.002     40.63
C(4)          1.505e-02
   HCO3-           1.442e-02   1.258e-02    -1.841    -1.900    -0.059     24.91
   CO2             2.587e-04   2.592e-04    -3.587    -3.586     0.001     38.73
   CO3-2           1.909e-04   1.105e-04    -3.719    -3.956    -0.237     -6.59
   KHCO3           1.808e-04   1.814e-04    -3.743    -3.741     0.002     23.97
   (CO2)2          5.923e-09   5.937e-09    -8.227    -8.226     0.001     76.62
H(0)          3.095e-15
   H2              1.547e-15   1.553e-15   -14.810   -14.809     0.002     18.14
K             1.505e-02
   K+              1.487e-02   1.286e-02    -1.828    -1.891    -0.063     10.16
   KHCO3           1.808e-04   1.814e-04    -3.743    -3.741     0.002     23.97
O(0)          0.000e+00
   O2              0.000e+00   0.000e+00   -44.716   -44.715     0.002     33.72

------------------------------Saturation indices-------------------------------

  Phase               SI** log IAP   log K(368 K,   1 atm)

  CH4(g)          -30.21    -33.22   -3.01  CH4
  CO2(g)           -1.62     -3.59   -1.96  CO2
  H2(g)           -11.71    -14.81   -3.10  H2
  H2O(g)           -0.08     -0.00    0.08  H2O
  O2(g)           -41.60    -44.71   -3.11  O2

**For a gas, SI = log10(fugacity). Fugacity = pressure * phi / 1 atm.
  For ideal gases, phi = 1.

------------------
End of simulation.
------------------

-------------------------------------
Reading input data for simulation 13.
-------------------------------------

