   Input file: Vm_KF
  Output file: Vm_KF.out
Database file: ../database/phreeqc.dat

------------------
Reading data base.
------------------

	SOLUTION_MASTER_SPECIES
	SOLUTION_SPECIES
	PHASES
	GAS_BINARY_PARAMETERS
	EXCHANGE_MASTER_SPECIES
	EXCHANGE_SPECIES
	SURFACE_MASTER_SPECIES
	SURFACE_SPECIES
	MEAN_GAMMAS
	RATES
	END
------------------------------------
Reading input data for simulation 1.
------------------------------------

	database ../database/phreeqc.dat
	SELECTED_OUTPUT 101
	    file                 Vm_KF_101.sel
	USER_PUNCH 101
	    headings Mu SC
	    start
	10 PUNCH STR_F$(MU, 20, 12)
	20 PUNCH STR_F$(SC, 20, 10)
	    end
	SOLUTION 1
	 pH 7 charge
	END
-------------------------------------------
Beginning of initial solution calculations.
-------------------------------------------

Initial solution 1.	

-----------------------------Solution composition------------------------------

	Elements           Molality       Moles

	Pure water     

----------------------------Description of solution----------------------------

                                       pH  =   6.997      Charge balance
                                       pe  =   4.000    
      Specific Conductance (µS/cm,  25°C)  = 0
                          Density (g/cm³)  =   0.99704
                               Volume (L)  =   1.00297
                        Viscosity (mPa s)  =   0.89002
                        Activity of water  =   1.000
                 Ionic strength (mol/kgw)  =   1.006e-07
                       Mass of water (kg)  =   1.000e+00
                 Total alkalinity (eq/kg)  =   3.040e-17
                         Temperature (°C)  =  25.00
                  Electrical balance (eq)  =  -3.040e-17
 Percent error, 100*(Cat-|An|)/(Cat+|An|)  =  -0.00
                               Iterations  =   2
                                  Total H  = 1.110124e+02
                                  Total O  = 5.550622e+01

----------------------------Distribution of species----------------------------

                                               Log       Log       Log    mole V
   Species          Molality    Activity  Molality  Activity     Gamma   cm³/mol

   OH-             1.006e-07   1.006e-07    -6.997    -6.997    -0.000     -4.14
   H+              1.006e-07   1.006e-07    -6.997    -6.997    -0.000      0.00
   H2O             5.551e+01   1.000e+00     1.744    -0.000     0.000     18.07
H(0)          1.433e-25
   H2              7.166e-26   7.166e-26   -25.145   -25.145     0.000     14.99
O(0)          0.000e+00
   O2              0.000e+00   0.000e+00   -42.073   -42.073     0.000     30.40

------------------------------Saturation indices-------------------------------

  Phase               SI** log IAP   log K(298 K,   1 atm)

  H2(g)           -22.05    -25.14   -3.10  H2
  H2O(g)           -1.50     -0.00    1.50  H2O
  O2(g)           -39.18    -42.07   -2.89  O2

**For a gas, SI = log10(fugacity). Fugacity = pressure * phi / 1 atm.
  For ideal gases, phi = 1.

------------------
End of simulation.
------------------

------------------------------------
Reading input data for simulation 2.
------------------------------------

	SOLUTION 1
	 pH 7 charge
	END
-------------------------------------------
Beginning of initial solution calculations.
-------------------------------------------

Initial solution 1.	

-----------------------------Solution composition------------------------------

	Elements           Molality       Moles

	Pure water     

----------------------------Description of solution----------------------------

                                       pH  =   6.997      Charge balance
                                       pe  =   4.000    
      Specific Conductance (µS/cm,  25°C)  = 0
                          Density (g/cm³)  =   0.99704
                               Volume (L)  =   1.00297
                        Viscosity (mPa s)  =   0.89002
                        Activity of water  =   1.000
                 Ionic strength (mol/kgw)  =   1.006e-07
                       Mass of water (kg)  =   1.000e+00
                 Total alkalinity (eq/kg)  =   3.040e-17
                         Temperature (°C)  =  25.00
                  Electrical balance (eq)  =  -3.040e-17
 Percent error, 100*(Cat-|An|)/(Cat+|An|)  =  -0.00
                               Iterations  =   2
                                  Total H  = 1.110124e+02
                                  Total O  = 5.550622e+01

----------------------------Distribution of species----------------------------

                                               Log       Log       Log    mole V
   Species          Molality    Activity  Molality  Activity     Gamma   cm³/mol

   OH-             1.006e-07   1.006e-07    -6.997    -6.997    -0.000     -4.14
   H+              1.006e-07   1.006e-07    -6.997    -6.997    -0.000      0.00
   H2O             5.551e+01   1.000e+00     1.744    -0.000     0.000     18.07
H(0)          1.433e-25
   H2              7.166e-26   7.166e-26   -25.145   -25.145     0.000     14.99
O(0)          0.000e+00
   O2              0.000e+00   0.000e+00   -42.073   -42.073     0.000     30.40

------------------------------Saturation indices-------------------------------

  Phase               SI** log IAP   log K(298 K,   1 atm)

  H2(g)           -22.05    -25.14   -3.10  H2
  H2O(g)           -1.50     -0.00    1.50  H2O
  O2(g)           -39.18    -42.07   -2.89  O2

**For a gas, SI = log10(fugacity). Fugacity = pressure * phi / 1 atm.
  For ideal gases, phi = 1.

------------------
End of simulation.
------------------

------------------------------------
Reading input data for simulation 3.
------------------------------------

	USE solution 1
	REACTION_TEMPERATURE
	 25.000000
	REACTION
	 KF 1
	0 0.012280 0.028260 0.040150 0.049540 0.059930 0.079770 0.100050 0.100150 0.150040 0.178480 0.199620 0.219910 0.319470 0.376370 0.399450 0.400030 0.486820 0.499190 0.523870 0.523900 0.599360 0.612230 0.700190 0.717790 0.799700 0.800000 0.900290 0.911410 0.999900 1.106000 1.142550 1.166380 1.166400 1.328780 1.525000 1.717230 1.917640 2.051100 2.051100 2.178010 2.409210 2.608150 2.808210 3.028550 3.028600 3.160960 3.284980 3.537640 3.790730 4.047310 4.186500 4.186570 4.480890 4.737210 4.997520 5.259670 5.523250 5.635790 5.635800 5.790320 6.060150 6.603540 6.879170 6.936600 6.937000 7.160330 7.438740 7.725310 8.011640 8.299290 8.590590 8.873750 8.874000 8.884030 10.716680 10.717000 12.670000 12.670760 
	USER_GRAPH
	 -headings 25.oC-0.atm
	-axis_scale y_axis -150 20
	 -axis_titles "KF / (mol/kg H2O)^0.5" "KF molar volume / (cm3/mol)"
	10 data 0, 7.971000, 8.107000, 8.172000, 8.199000, 8.262000, 8.352000, 8.411000, 8.421000, 8.576000, 8.435000, 8.711000, 8.761000, 8.989000, 9.108000, 9.156000, 9.156000, 9.319000, 9.336000, 8.799000, 8.782000, 9.503000, 9.646000, 9.658000, 9.846000, 9.837000, 9.801000, 9.938000, 9.853000, 10.135000, 10.196000, 10.209000, 10.100000, 10.060000, 10.477000, 10.670000, 10.923000, 11.162000, 11.280000, 11.266000, 11.378000, 11.707000, 11.911000, 12.104000, 12.286000, 12.299000, 12.376000, 12.492000, 12.720000, 12.938000, 13.161000, 13.228000, 13.224000, 13.514000, 13.693000, 13.885000, 14.051000, 14.214000, 14.198000, 14.202000, 14.374000, 14.532000, 14.835000, 14.984000, 14.937000, 14.938000, 15.127000, 15.270000, 15.410000, 15.544000, 15.676000, 15.808000, 15.837000, 15.836000, 15.952000, 16.554000, 16.554000, 17.168000, 17.167000, 
	20 dim d(79)
	30 for i = 1 to step_no : read d(i) : next i
	40 if step_no = 1 then put(rho, 10)
	50 if step_no > 1 then F = tot("F") : Vmol = (1e3 + F * 58.1004) / (F * rho) - 1e3 / (F * get(10))
	60 if step_no = 1 then dif = 0 else dif = Vmol - d(step_no)
	70 put(abs(dif) + get(1), 1) : put(1 + get(2), 2)
	100 if step_no = 1 then goto 150
	110 plot_xy F^0.5, d(step_no), symbol = Circle, line_w = 0, color = Orange
	120 plot_xy F^0.5, Vmol, symbol = None, color = Orange
	130 if step_no = 79 then print 'Laliberte, 25C, AAD ' + str_f$(get(1) / get(2), 0, 3) + ' cm3/mol'
	150 end
	END
-----------------------------------------
Beginning of batch-reaction calculations.
-----------------------------------------

Reaction step 1.

Using solution 1.	
Using temperature 1.	
Using reaction 1.	

Reaction 1.	

	  0.000e+00 moles of the following reaction have been added:

	                 Relative
	Reactant            moles

	KF                   1.00000

	                 Relative
	Element             moles
	F                    1.00000
	K                    1.00000

-----------------------------Solution composition------------------------------

	Elements           Molality       Moles

	Pure water     

----------------------------Description of solution----------------------------

                                       pH  =   6.997      Charge balance
                                       pe  =   4.000      Adjusted to redox equilibrium
      Specific Conductance (µS/cm,  25°C)  = 0
                          Density (g/cm³)  =   0.99704
                               Volume (L)  =   1.00297
                        Viscosity (mPa s)  =   0.89002
                        Activity of water  =   1.000
                 Ionic strength (mol/kgw)  =   1.006e-07
                       Mass of water (kg)  =   1.000e+00
                 Total alkalinity (eq/kg)  =   3.040e-17
                         Temperature (°C)  =  25.00
                  Electrical balance (eq)  =  -3.040e-17
 Percent error, 100*(Cat-|An|)/(Cat+|An|)  =  -0.00
                               Iterations  =   0
                                  Total H  = 1.110124e+02
                                  Total O  = 5.550622e+01

----------------------------Distribution of species----------------------------

                                               Log       Log       Log    mole V
   Species          Molality    Activity  Molality  Activity     Gamma   cm³/mol

   OH-             1.006e-07   1.006e-07    -6.997    -6.997    -0.000     -4.14
   H+              1.006e-07   1.006e-07    -6.997    -6.997    -0.000      0.00
   H2O             5.551e+01   1.000e+00     1.744    -0.000     0.000     18.07
H(0)          1.433e-25
   H2              7.166e-26   7.166e-26   -25.145   -25.145     0.000     14.99
O(0)          0.000e+00
   O2              0.000e+00   0.000e+00   -42.073   -42.073     0.000     30.40

------------------------------Saturation indices-------------------------------

  Phase               SI** log IAP   log K(298 K,   1 atm)

  H2(g)           -22.05    -25.14   -3.10  H2
  H2O(g)           -1.50     -0.00    1.50  H2O
  O2(g)           -39.18    -42.07   -2.89  O2

**For a gas, SI = log10(fugacity). Fugacity = pressure * phi / 1 atm.
  For ideal gases, phi = 1.

Reaction step 2.

Using solution 1.	
Using temperature 1.	
Using reaction 1.	

Reaction 1.	

	  1.228e-02 moles of the following reaction have been added:

	                 Relative
	Reactant            moles

	KF                   1.00000

	                 Relative
	Element             moles
	F                    1.00000
	K                    1.00000

-----------------------------Solution composition------------------------------

	Elements           Molality       Moles

	F                 1.228e-02   1.228e-02
	K                 1.228e-02   1.228e-02

----------------------------Description of solution----------------------------

                                       pH  =   7.602      Charge balance
                                       pe  =  -0.769      Adjusted to redox equilibrium
      Specific Conductance (µS/cm,  25°C)  = 1461
                          Density (g/cm³)  =   0.99766
                               Volume (L)  =   1.00306
                        Viscosity (mPa s)  =   0.89262
                        Activity of water  =   1.000
                 Ionic strength (mol/kgw)  =   1.225e-02
                       Mass of water (kg)  =   1.000e+00
                 Total alkalinity (eq/kg)  =  -3.320e-12
                         Temperature (°C)  =  25.00
                  Electrical balance (eq)  =  -1.032e-10
 Percent error, 100*(Cat-|An|)/(Cat+|An|)  =  -0.00
                               Iterations  =   7
                                  Total H  = 1.110124e+02
                                  Total O  = 5.550622e+01

----------------------------Distribution of species----------------------------

                                               Log       Log       Log    mole V
   Species          Molality    Activity  Molality  Activity     Gamma   cm³/mol

   OH-             4.539e-07   4.045e-07    -6.343    -6.393    -0.050     -4.02
   H+              2.759e-08   2.501e-08    -7.559    -7.602    -0.043      0.00
   H2O             5.551e+01   9.996e-01     1.744    -0.000     0.000     18.07
F             1.228e-02
   F-              1.225e-02   1.089e-02    -1.912    -1.963    -0.051     -1.53
   KF              3.090e-05   3.081e-05    -4.510    -4.511    -0.001     -0.17
   HF              4.072e-07   4.084e-07    -6.390    -6.389     0.001     12.50
   HF2-            1.909e-08   1.706e-08    -7.719    -7.768    -0.049     22.14
H(0)          3.042e-17
   H2              1.521e-17   1.526e-17   -16.818   -16.817     0.001     14.99
K             1.228e-02
   K+              1.225e-02   1.092e-02    -1.912    -1.962    -0.050      9.08
   KF              3.090e-05   3.081e-05    -4.510    -4.511    -0.001     -0.17
O(0)          0.000e+00
   O2              0.000e+00   0.000e+00   -58.731   -58.730     0.001     30.40

------------------------------Saturation indices-------------------------------

  Phase               SI** log IAP   log K(298 K,   1 atm)

  H2(g)           -13.72    -16.82   -3.10  H2
  H2O(g)           -1.50     -0.00    1.50  H2O
  O2(g)           -55.84    -58.73   -2.89  O2

**For a gas, SI = log10(fugacity). Fugacity = pressure * phi / 1 atm.
  For ideal gases, phi = 1.

Reaction step 3.

Using solution 1.	
Using temperature 1.	
Using reaction 1.	

Reaction 1.	

	  2.826e-02 moles of the following reaction have been added:

	                 Relative
	Reactant            moles

	KF                   1.00000

	                 Relative
	Element             moles
	F                    1.00000
	K                    1.00000

-----------------------------Solution composition------------------------------

	Elements           Molality       Moles

	F                 2.826e-02   2.826e-02
	K                 2.826e-02   2.826e-02

----------------------------Description of solution----------------------------

                                       pH  =   7.764      Charge balance
                                       pe  =  -0.927      Adjusted to redox equilibrium
      Specific Conductance (µS/cm,  25°C)  = 3262
                          Density (g/cm³)  =   0.99847
                               Volume (L)  =   1.00318
                        Viscosity (mPa s)  =   0.89515
                        Activity of water  =   0.999
                 Ionic strength (mol/kgw)  =   2.811e-02
                       Mass of water (kg)  =   1.000e+00
                 Total alkalinity (eq/kg)  =  -6.064e-17
                         Temperature (°C)  =  25.00
                  Electrical balance (eq)  =  -9.179e-14
 Percent error, 100*(Cat-|An|)/(Cat+|An|)  =  -0.00
                               Iterations  =   8
                                  Total H  = 1.110124e+02
                                  Total O  = 5.550622e+01

----------------------------Distribution of species----------------------------

                                               Log       Log       Log    mole V
   Species          Molality    Activity  Molality  Activity     Gamma   cm³/mol

   OH-             6.926e-07   5.872e-07    -6.160    -6.231    -0.072     -3.95
   H+              1.964e-08   1.722e-08    -7.707    -7.764    -0.057      0.00
   H2O             5.551e+01   9.990e-01     1.744    -0.000     0.000     18.07
F             2.826e-02
   F-              2.811e-02   2.369e-02    -1.551    -1.626    -0.074     -1.46
   KF              1.474e-04   1.465e-04    -3.831    -3.834    -0.003     -0.17
   HF              6.078e-07   6.117e-07    -6.216    -6.213     0.003     12.50
   HF2-            6.516e-08   5.560e-08    -7.186    -7.255    -0.069     22.19
H(0)          2.984e-17
   H2              1.492e-17   1.502e-17   -16.826   -16.823     0.003     14.99
K             2.826e-02
   K+              2.811e-02   2.386e-02    -1.551    -1.622    -0.071      9.12
   KF              1.474e-04   1.465e-04    -3.831    -3.834    -0.003     -0.17
O(0)          0.000e+00
   O2              0.000e+00   0.000e+00   -58.720   -58.717     0.003     30.40

------------------------------Saturation indices-------------------------------

  Phase               SI** log IAP   log K(298 K,   1 atm)

  H2(g)           -13.72    -16.82   -3.10  H2
  H2O(g)           -1.50     -0.00    1.50  H2O
  O2(g)           -55.82    -58.72   -2.89  O2

**For a gas, SI = log10(fugacity). Fugacity = pressure * phi / 1 atm.
  For ideal gases, phi = 1.

Reaction step 4.

Using solution 1.	
Using temperature 1.	
Using reaction 1.	

Reaction 1.	

	  4.015e-02 moles of the following reaction have been added:

	                 Relative
	Reactant            moles

	KF                   1.00000

	                 Relative
	Element             moles
	F                    1.00000
	K                    1.00000

-----------------------------Solution composition------------------------------

	Elements           Molality       Moles

	F                 4.015e-02   4.015e-02
	K                 4.015e-02   4.015e-02

----------------------------Description of solution----------------------------

                                       pH  =   7.834      Charge balance
                                       pe  =  -0.993      Adjusted to redox equilibrium
      Specific Conductance (µS/cm,  25°C)  = 4561
                          Density (g/cm³)  =   0.99906
                               Volume (L)  =   1.00327
                        Viscosity (mPa s)  =   0.89687
                        Activity of water  =   0.999
                 Ionic strength (mol/kgw)  =   3.987e-02
                       Mass of water (kg)  =   1.000e+00
                 Total alkalinity (eq/kg)  =  -8.695e-15
                         Temperature (°C)  =  25.00
                  Electrical balance (eq)  =  -2.711e-12
 Percent error, 100*(Cat-|An|)/(Cat+|An|)  =  -0.00
                               Iterations  =   8
                                  Total H  = 1.110124e+02
                                  Total O  = 5.550622e+01

----------------------------Distribution of species----------------------------

                                               Log       Log       Log    mole V
   Species          Molality    Activity  Molality  Activity     Gamma   cm³/mol

   OH-             8.353e-07   6.903e-07    -6.078    -6.161    -0.083     -3.91
   H+              1.697e-08   1.464e-08    -7.770    -7.834    -0.064      0.00
   H2O             5.551e+01   9.986e-01     1.744    -0.001     0.000     18.07
F             4.015e-02
   F-              3.987e-02   3.266e-02    -1.399    -1.486    -0.087     -1.42
   KF              2.819e-04   2.793e-04    -3.550    -3.554    -0.004     -0.17
   HF              7.106e-07   7.172e-07    -6.148    -6.144     0.004     12.50
   HF2-            1.077e-07   8.986e-08    -6.968    -7.046    -0.079     22.22
H(0)          2.912e-17
   H2              1.456e-17   1.470e-17   -16.837   -16.833     0.004     14.99
K             4.015e-02
   K+              3.987e-02   3.299e-02    -1.399    -1.482    -0.082      9.15
   KF              2.819e-04   2.793e-04    -3.550    -3.554    -0.004     -0.17
O(0)          0.000e+00
   O2              0.000e+00   0.000e+00   -58.702   -58.698     0.004     30.40

------------------------------Saturation indices-------------------------------

  Phase               SI** log IAP   log K(298 K,   1 atm)

  H2(g)           -13.73    -16.83   -3.10  H2
  H2O(g)           -1.50     -0.00    1.50  H2O
  O2(g)           -55.81    -58.70   -2.89  O2

**For a gas, SI = log10(fugacity). Fugacity = pressure * phi / 1 atm.
  For ideal gases, phi = 1.

Reaction step 5.

Using solution 1.	
Using temperature 1.	
Using reaction 1.	

Reaction 1.	

	  4.954e-02 moles of the following reaction have been added:

	                 Relative
	Reactant            moles

	KF                   1.00000

	                 Relative
	Element             moles
	F                    1.00000
	K                    1.00000

-----------------------------Solution composition------------------------------

	Elements           Molality       Moles

	F                 4.954e-02   4.954e-02
	K                 4.954e-02   4.954e-02

----------------------------Description of solution----------------------------

                                       pH  =   7.877      Charge balance
                                       pe  =  -1.097      Adjusted to redox equilibrium
      Specific Conductance (µS/cm,  25°C)  = 5570
                          Density (g/cm³)  =   0.99953
                               Volume (L)  =   1.00335
                        Viscosity (mPa s)  =   0.89816
                        Activity of water  =   0.998
                 Ionic strength (mol/kgw)  =   4.913e-02
                       Mass of water (kg)  =   1.000e+00
                 Total alkalinity (eq/kg)  =  -1.152e-13
                         Temperature (°C)  =  25.00
                  Electrical balance (eq)  =  -1.685e-11
 Percent error, 100*(Cat-|An|)/(Cat+|An|)  =  -0.00
                               Iterations  =   8
                                  Total H  = 1.110124e+02
                                  Total O  = 5.550622e+01

----------------------------Distribution of species----------------------------

                                               Log       Log       Log    mole V
   Species          Molality    Activity  Molality  Activity     Gamma   cm³/mol

   OH-             9.372e-07   7.617e-07    -6.028    -6.118    -0.090     -3.88
   H+              1.553e-08   1.327e-08    -7.809    -7.877    -0.068      0.00
   H2O             5.551e+01   9.983e-01     1.744    -0.001     0.000     18.07
F             4.954e-02
   F-              4.912e-02   3.949e-02    -1.309    -1.404    -0.095     -1.38
   KF              4.141e-04   4.094e-04    -3.383    -3.388    -0.005     -0.17
   HF              7.769e-07   7.857e-07    -6.110    -6.105     0.005     12.50
   HF2-            1.448e-07   1.191e-07    -6.839    -6.924    -0.085     22.24
H(0)          3.852e-17
   H2              1.926e-17   1.949e-17   -16.715   -16.710     0.005     14.99
K             4.954e-02
   K+              4.913e-02   3.999e-02    -1.309    -1.398    -0.089      9.17
   KF              4.141e-04   4.094e-04    -3.383    -3.388    -0.005     -0.17
O(0)          0.000e+00
   O2              0.000e+00   0.000e+00   -58.949   -58.944     0.005     30.40

------------------------------Saturation indices-------------------------------

  Phase               SI** log IAP   log K(298 K,   1 atm)

  H2(g)           -13.61    -16.71   -3.10  H2
  H2O(g)           -1.50     -0.00    1.50  H2O
  O2(g)           -56.05    -58.94   -2.89  O2

**For a gas, SI = log10(fugacity). Fugacity = pressure * phi / 1 atm.
  For ideal gases, phi = 1.

Reaction step 6.

Using solution 1.	
Using temperature 1.	
Using reaction 1.	

Reaction 1.	

	  5.993e-02 moles of the following reaction have been added:

	                 Relative
	Reactant            moles

	KF                   1.00000

	                 Relative
	Element             moles
	F                    1.00000
	K                    1.00000

-----------------------------Solution composition------------------------------

	Elements           Molality       Moles

	F                 5.993e-02   5.993e-02
	K                 5.993e-02   5.993e-02

----------------------------Description of solution----------------------------

                                       pH  =   7.917      Charge balance
                                       pe  =  -1.076      Adjusted to redox equilibrium
      Specific Conductance (µS/cm,  25°C)  = 6672
                          Density (g/cm³)  =   1.00005
                               Volume (L)  =   1.00343
                        Viscosity (mPa s)  =   0.89955
                        Activity of water  =   0.998
                 Ionic strength (mol/kgw)  =   5.934e-02
                       Mass of water (kg)  =   1.000e+00
                 Total alkalinity (eq/kg)  =  -9.623e-13
                         Temperature (°C)  =  25.00
                  Electrical balance (eq)  =  -7.451e-11
 Percent error, 100*(Cat-|An|)/(Cat+|An|)  =  -0.00
                               Iterations  =   8
                                  Total H  = 1.110124e+02
                                  Total O  = 5.550622e+01

----------------------------Distribution of species----------------------------

                                               Log       Log       Log    mole V
   Species          Molality    Activity  Molality  Activity     Gamma   cm³/mol

   OH-             1.042e-06   8.337e-07    -5.982    -6.079    -0.097     -3.84
   H+              1.431e-08   1.212e-08    -7.844    -7.917    -0.072      0.00
   H2O             5.551e+01   9.980e-01     1.744    -0.001     0.000     18.07
F             5.993e-02
   F-              5.934e-02   4.684e-02    -1.227    -1.329    -0.103     -1.35
   KF              5.854e-04   5.775e-04    -3.233    -3.238    -0.006     -0.17
   HF              8.396e-07   8.511e-07    -6.076    -6.070     0.006     12.50
   HF2-            1.886e-07   1.530e-07    -6.725    -6.815    -0.091     22.26
H(0)          2.909e-17
   H2              1.454e-17   1.475e-17   -16.837   -16.831     0.006     14.99
K             5.993e-02
   K+              5.934e-02   4.756e-02    -1.227    -1.323    -0.096      9.18
   KF              5.854e-04   5.775e-04    -3.233    -3.238    -0.006     -0.17
O(0)          0.000e+00
   O2              0.000e+00   0.000e+00   -58.708   -58.702     0.006     30.40

------------------------------Saturation indices-------------------------------

  Phase               SI** log IAP   log K(298 K,   1 atm)

  H2(g)           -13.73    -16.83   -3.10  H2
  H2O(g)           -1.50     -0.00    1.50  H2O
  O2(g)           -55.81    -58.70   -2.89  O2

**For a gas, SI = log10(fugacity). Fugacity = pressure * phi / 1 atm.
  For ideal gases, phi = 1.

Reaction step 7.

Using solution 1.	
Using temperature 1.	
Using reaction 1.	

Reaction 1.	

	  7.977e-02 moles of the following reaction have been added:

	                 Relative
	Reactant            moles

	KF                   1.00000

	                 Relative
	Element             moles
	F                    1.00000
	K                    1.00000

-----------------------------Solution composition------------------------------

	Elements           Molality       Moles

	F                 7.977e-02   7.977e-02
	K                 7.977e-02   7.977e-02

----------------------------Description of solution----------------------------

                                       pH  =   7.977      Charge balance
                                       pe  =  -1.147      Adjusted to redox equilibrium
      Specific Conductance (µS/cm,  25°C)  = 8740
                          Density (g/cm³)  =   1.00104
                               Volume (L)  =   1.00359
                        Viscosity (mPa s)  =   0.90209
                        Activity of water  =   0.997
                 Ionic strength (mol/kgw)  =   7.879e-02
                       Mass of water (kg)  =   1.000e+00
                 Total alkalinity (eq/kg)  =  -1.612e-11
                         Temperature (°C)  =  25.00
                  Electrical balance (eq)  =  -5.367e-10
 Percent error, 100*(Cat-|An|)/(Cat+|An|)  =  -0.00
                               Iterations  =   8
                                  Total H  = 1.110124e+02
                                  Total O  = 5.550622e+01

----------------------------Distribution of species----------------------------

                                               Log       Log       Log    mole V
   Species          Molality    Activity  Molality  Activity     Gamma   cm³/mol

   OH-             1.228e-06   9.571e-07    -5.911    -6.019    -0.108     -3.79
   H+              1.263e-08   1.055e-08    -7.899    -7.977    -0.078      0.00
   H2O             5.551e+01   9.973e-01     1.744    -0.001     0.000     18.07
F             7.977e-02
   F-              7.879e-02   6.035e-02    -1.104    -1.219    -0.116     -1.29
   KF              9.810e-04   9.633e-04    -3.008    -3.016    -0.008     -0.17
   HF              9.373e-07   9.545e-07    -6.028    -6.020     0.008     12.50
   HF2-            2.781e-07   2.210e-07    -6.556    -6.656    -0.100     22.30
H(0)          3.047e-17
   H2              1.523e-17   1.553e-17   -16.817   -16.809     0.008     14.99
K             7.977e-02
   K+              7.879e-02   6.158e-02    -1.104    -1.211    -0.107      9.21
   KF              9.810e-04   9.633e-04    -3.008    -3.016    -0.008     -0.17
O(0)          0.000e+00
   O2              0.000e+00   0.000e+00   -58.755   -58.747     0.008     30.40

------------------------------Saturation indices-------------------------------

  Phase               SI** log IAP   log K(298 K,   1 atm)

  H2(g)           -13.71    -16.81   -3.10  H2
  H2O(g)           -1.50     -0.00    1.50  H2O
  O2(g)           -55.85    -58.75   -2.89  O2

**For a gas, SI = log10(fugacity). Fugacity = pressure * phi / 1 atm.
  For ideal gases, phi = 1.

Reaction step 8.

Using solution 1.	
Using temperature 1.	
Using reaction 1.	

Reaction 1.	

	  1.001e-01 moles of the following reaction have been added:

	                 Relative
	Reactant            moles

	KF                   1.00000

	                 Relative
	Element             moles
	F                    1.00000
	K                    1.00000

-----------------------------Solution composition------------------------------

	Elements           Molality       Moles

	F                 1.001e-01   1.001e-01
	K                 1.001e-01   1.001e-01

----------------------------Description of solution----------------------------

                                       pH  =   8.026      Charge balance
                                       pe  =  -1.221      Adjusted to redox equilibrium
      Specific Conductance (µS/cm,  25°C)  = 10814
                          Density (g/cm³)  =   1.00205
                               Volume (L)  =   1.00376
                        Viscosity (mPa s)  =   0.90457
                        Activity of water  =   0.997
                 Ionic strength (mol/kgw)  =   9.858e-02
                       Mass of water (kg)  =   1.000e+00
                 Total alkalinity (eq/kg)  =   3.533e-17
                         Temperature (°C)  =  25.00
                  Electrical balance (eq)  =  -1.627e-15
 Percent error, 100*(Cat-|An|)/(Cat+|An|)  =  -0.00
                               Iterations  =   9
                                  Total H  = 1.110124e+02
                                  Total O  = 5.550622e+01

----------------------------Distribution of species----------------------------

                                               Log       Log       Log    mole V
   Species          Molality    Activity  Molality  Activity     Gamma   cm³/mol

   OH-             1.403e-06   1.070e-06    -5.853    -5.971    -0.118     -3.73
   H+              1.141e-08   9.426e-09    -7.943    -8.026    -0.083      0.00
   H2O             5.551e+01   9.966e-01     1.744    -0.001     0.000     18.07
F             1.001e-01
   F-              9.858e-02   7.356e-02    -1.006    -1.133    -0.127     -1.22
   KF              1.472e-03   1.439e-03    -2.832    -2.842    -0.010     -0.17
   HF              1.017e-06   1.040e-06    -5.993    -5.983     0.010     12.50
   HF2-            3.753e-07   2.935e-07    -6.426    -6.532    -0.107     22.33
H(0)          3.394e-17
   H2              1.697e-17   1.738e-17   -16.770   -16.760     0.010     14.99
K             1.001e-01
   K+              9.858e-02   7.544e-02    -1.006    -1.122    -0.116      9.24
   KF              1.472e-03   1.439e-03    -2.832    -2.842    -0.010     -0.17
O(0)          0.000e+00
   O2              0.000e+00   0.000e+00   -58.855   -58.845     0.010     30.40

------------------------------Saturation indices-------------------------------

  Phase               SI** log IAP   log K(298 K,   1 atm)

  H2(g)           -13.66    -16.76   -3.10  H2
  H2O(g)           -1.50     -0.00    1.50  H2O
  O2(g)           -55.95    -58.85   -2.89  O2

**For a gas, SI = log10(fugacity). Fugacity = pressure * phi / 1 atm.
  For ideal gases, phi = 1.

Reaction step 9.

Using solution 1.	
Using temperature 1.	
Using reaction 1.	

Reaction 1.	

	  1.002e-01 moles of the following reaction have been added:

	                 Relative
	Reactant            moles

	KF                   1.00000

	                 Relative
	Element             moles
	F                    1.00000
	K                    1.00000

-----------------------------Solution composition------------------------------

	Elements           Molality       Moles

	F                 1.002e-01   1.002e-01
	K                 1.002e-01   1.001e-01

----------------------------Description of solution----------------------------

                                       pH  =   8.026      Charge balance
                                       pe  =  -1.159      Adjusted to redox equilibrium
      Specific Conductance (µS/cm,  25°C)  = 10825
                          Density (g/cm³)  =   1.00205
                               Volume (L)  =   1.00376
                        Viscosity (mPa s)  =   0.90459
                        Activity of water  =   0.997
                 Ionic strength (mol/kgw)  =   9.868e-02
                       Mass of water (kg)  =   1.000e+00
                 Total alkalinity (eq/kg)  =   2.623e-17
                         Temperature (°C)  =  25.00
                  Electrical balance (eq)  =  -2.085e-15
 Percent error, 100*(Cat-|An|)/(Cat+|An|)  =  -0.00
                               Iterations  =   9
                                  Total H  = 1.110124e+02
                                  Total O  = 5.550622e+01

----------------------------Distribution of species----------------------------

                                               Log       Log       Log    mole V
   Species          Molality    Activity  Molality  Activity     Gamma   cm³/mol

   OH-             1.404e-06   1.071e-06    -5.853    -5.970    -0.118     -3.73
   H+              1.141e-08   9.421e-09    -7.943    -8.026    -0.083      0.00
   H2O             5.551e+01   9.966e-01     1.744    -0.001     0.000     18.07
F             1.002e-01
   F-              9.867e-02   7.363e-02    -1.006    -1.133    -0.127     -1.22
   KF              1.474e-03   1.441e-03    -2.831    -2.841    -0.010     -0.17
   HF              1.017e-06   1.040e-06    -5.993    -5.983     0.010     12.50
   HF2-            3.758e-07   2.939e-07    -6.425    -6.532    -0.107     22.33
H(0)          2.557e-17
   H2              1.278e-17   1.309e-17   -16.893   -16.883     0.010     14.99
K             1.002e-01
   K+              9.868e-02   7.551e-02    -1.006    -1.122    -0.116      9.24
   KF              1.474e-03   1.441e-03    -2.831    -2.841    -0.010     -0.17
O(0)          0.000e+00
   O2              0.000e+00   0.000e+00   -58.609   -58.600     0.010     30.40

------------------------------Saturation indices-------------------------------

  Phase               SI** log IAP   log K(298 K,   1 atm)

  H2(g)           -13.78    -16.88   -3.10  H2
  H2O(g)           -1.50     -0.00    1.50  H2O
  O2(g)           -55.71    -58.60   -2.89  O2

**For a gas, SI = log10(fugacity). Fugacity = pressure * phi / 1 atm.
  For ideal gases, phi = 1.

Reaction step 10.

Using solution 1.	
Using temperature 1.	
Using reaction 1.	

Reaction 1.	

	  1.500e-01 moles of the following reaction have been added:

	                 Relative
	Reactant            moles

	KF                   1.00000

	                 Relative
	Element             moles
	F                    1.00000
	K                    1.00000

-----------------------------Solution composition------------------------------

	Elements           Molality       Moles

	F                 1.500e-01   1.500e-01
	K                 1.500e-01   1.500e-01

----------------------------Description of solution----------------------------

                                       pH  =   8.115      Charge balance
                                       pe  =  -0.975      Adjusted to redox equilibrium
      Specific Conductance (µS/cm,  25°C)  = 15798
                          Density (g/cm³)  =   1.00453
                               Volume (L)  =   1.00417
                        Viscosity (mPa s)  =   0.91041
                        Activity of water  =   0.995
                 Ionic strength (mol/kgw)  =   1.470e-01
                       Mass of water (kg)  =   1.000e+00
                 Total alkalinity (eq/kg)  =   9.059e-18
                         Temperature (°C)  =  25.00
                  Electrical balance (eq)  =  -7.836e-15
 Percent error, 100*(Cat-|An|)/(Cat+|An|)  =  -0.00
                               Iterations  =  12
                                  Total H  = 1.110124e+02
                                  Total O  = 5.550622e+01

----------------------------Distribution of species----------------------------

                                               Log       Log       Log    mole V
   Species          Molality    Activity  Molality  Activity     Gamma   cm³/mol

   OH-             1.796e-06   1.314e-06    -5.746    -5.882    -0.136     -3.62
   H+              9.468e-09   7.666e-09    -8.024    -8.115    -0.092      0.00
   H2O             5.551e+01   9.949e-01     1.744    -0.002     0.000     18.07
F             1.500e-01
   F-              1.470e-01   1.041e-01    -0.833    -0.982    -0.150     -1.08
   KF              3.019e-03   2.918e-03    -2.520    -2.535    -0.015     -0.17
   HF              1.157e-06   1.197e-06    -5.937    -5.922     0.015     12.50
   HF2-            6.288e-07   4.782e-07    -6.201    -6.320    -0.119     22.39
H(0)          7.159e-18
   H2              3.580e-18   3.709e-18   -17.446   -17.431     0.015     14.99
K             1.500e-01
   K+              1.470e-01   1.081e-01    -0.833    -0.966    -0.134      9.29
   KF              3.019e-03   2.918e-03    -2.520    -2.535    -0.015     -0.17
O(0)          0.000e+00
   O2              0.000e+00   0.000e+00   -57.520   -57.506     0.015     30.40

------------------------------Saturation indices-------------------------------

  Phase               SI** log IAP   log K(298 K,   1 atm)

  H2(g)           -14.33    -17.43   -3.10  H2
  H2O(g)           -1.51     -0.00    1.50  H2O
  O2(g)           -54.61    -57.51   -2.89  O2

**For a gas, SI = log10(fugacity). Fugacity = pressure * phi / 1 atm.
  For ideal gases, phi = 1.

Reaction step 11.

Using solution 1.	
Using temperature 1.	
Using reaction 1.	

Reaction 1.	

	  1.785e-01 moles of the following reaction have been added:

	                 Relative
	Reactant            moles

	KF                   1.00000

	                 Relative
	Element             moles
	F                    1.00000
	K                    1.00000

-----------------------------Solution composition------------------------------

	Elements           Molality       Moles

	F                 1.785e-01   1.785e-01
	K                 1.785e-01   1.785e-01

----------------------------Description of solution----------------------------

                                       pH  =   8.155      Charge balance
                                       pe  =  -1.197      Adjusted to redox equilibrium
      Specific Conductance (µS/cm,  25°C)  = 18567
                          Density (g/cm³)  =   1.00593
                               Volume (L)  =   1.00441
                        Viscosity (mPa s)  =   0.91360
                        Activity of water  =   0.994
                 Ionic strength (mol/kgw)  =   1.744e-01
                       Mass of water (kg)  =   1.000e+00
                 Total alkalinity (eq/kg)  =  -1.532e-14
                         Temperature (°C)  =  25.00
                  Electrical balance (eq)  =  -6.631e-12
 Percent error, 100*(Cat-|An|)/(Cat+|An|)  =  -0.00
                               Iterations  =   9
                                  Total H  = 1.110124e+02
                                  Total O  = 5.550622e+01

----------------------------Distribution of species----------------------------

                                               Log       Log       Log    mole V
   Species          Molality    Activity  Molality  Activity     Gamma   cm³/mol

   OH-             2.001e-06   1.437e-06    -5.699    -5.843    -0.144     -3.55
   H+              8.721e-09   7.002e-09    -8.059    -8.155    -0.095      0.00
   H2O             5.551e+01   9.940e-01     1.744    -0.003     0.000     18.07
F             1.785e-01
   F-              1.744e-01   1.205e-01    -0.758    -0.919    -0.161     -1.01
   KF              4.095e-03   3.934e-03    -2.388    -2.405    -0.017     -0.17
   HF              1.215e-06   1.265e-06    -5.915    -5.898     0.017     12.50
   HF2-            7.772e-07   5.847e-07    -6.109    -6.233    -0.124     22.43
H(0)          1.652e-17
   H2              8.261e-18   8.616e-18   -17.083   -17.065     0.018     14.99
K             1.785e-01
   K+              1.744e-01   1.260e-01    -0.758    -0.900    -0.141      9.32
   KF              4.095e-03   3.934e-03    -2.388    -2.405    -0.017     -0.17
O(0)          0.000e+00
   O2              0.000e+00   0.000e+00   -58.256   -58.238     0.017     30.40

------------------------------Saturation indices-------------------------------

  Phase               SI** log IAP   log K(298 K,   1 atm)

  H2(g)           -13.97    -17.06   -3.10  H2
  H2O(g)           -1.51     -0.00    1.50  H2O
  O2(g)           -55.35    -58.24   -2.89  O2

**For a gas, SI = log10(fugacity). Fugacity = pressure * phi / 1 atm.
  For ideal gases, phi = 1.

Reaction step 12.

Using solution 1.	
Using temperature 1.	
Using reaction 1.	

Reaction 1.	

	  1.996e-01 moles of the following reaction have been added:

	                 Relative
	Reactant            moles

	KF                   1.00000

	                 Relative
	Element             moles
	F                    1.00000
	K                    1.00000

-----------------------------Solution composition------------------------------

	Elements           Molality       Moles

	F                 1.996e-01   1.996e-01
	K                 1.996e-01   1.996e-01

----------------------------Description of solution----------------------------

                                       pH  =   8.180      Charge balance
                                       pe  =  -1.407      Adjusted to redox equilibrium
      Specific Conductance (µS/cm,  25°C)  = 20598
                          Density (g/cm³)  =   1.00697
                               Volume (L)  =   1.00460
                        Viscosity (mPa s)  =   0.91593
                        Activity of water  =   0.993
                 Ionic strength (mol/kgw)  =   1.946e-01
                       Mass of water (kg)  =   1.000e+00
                 Total alkalinity (eq/kg)  =  -1.417e-13
                         Temperature (°C)  =  25.00
                  Electrical balance (eq)  =  -3.156e-11
 Percent error, 100*(Cat-|An|)/(Cat+|An|)  =  -0.00
                               Iterations  =   9
                                  Total H  = 1.110124e+02
                                  Total O  = 5.550622e+01

----------------------------Distribution of species----------------------------

                                               Log       Log       Log    mole V
   Species          Molality    Activity  Molality  Activity     Gamma   cm³/mol

   OH-             2.148e-06   1.523e-06    -5.668    -5.817    -0.149     -3.51
   H+              8.265e-09   6.601e-09    -8.083    -8.180    -0.098      0.00
   H2O             5.551e+01   9.933e-01     1.744    -0.003     0.000     18.07
F             1.996e-01
   F-              1.946e-01   1.322e-01    -0.711    -0.879    -0.168     -0.95
   KF              4.981e-03   4.762e-03    -2.303    -2.322    -0.019     -0.17
   HF              1.251e-06   1.309e-06    -5.903    -5.883     0.019     12.50
   HF2-            8.881e-07   6.639e-07    -6.052    -6.178    -0.126     22.45
H(0)          3.837e-17
   H2              1.918e-17   2.011e-17   -16.717   -16.697     0.020     14.99
K             1.996e-01
   K+              1.946e-01   1.390e-01    -0.711    -0.857    -0.146      9.34
   KF              4.981e-03   4.762e-03    -2.303    -2.322    -0.019     -0.17
O(0)          0.000e+00
   O2              0.000e+00   0.000e+00   -58.995   -58.975     0.019     30.40

------------------------------Saturation indices-------------------------------

  Phase               SI** log IAP   log K(298 K,   1 atm)

  H2(g)           -13.60    -16.70   -3.10  H2
  H2O(g)           -1.51     -0.00    1.50  H2O
  O2(g)           -56.08    -58.98   -2.89  O2

**For a gas, SI = log10(fugacity). Fugacity = pressure * phi / 1 atm.
  For ideal gases, phi = 1.

Reaction step 13.

Using solution 1.	
Using temperature 1.	
Using reaction 1.	

Reaction 1.	

	  2.199e-01 moles of the following reaction have been added:

	                 Relative
	Reactant            moles

	KF                   1.00000

	                 Relative
	Element             moles
	F                    1.00000
	K                    1.00000

-----------------------------Solution composition------------------------------

	Elements           Molality       Moles

	F                 2.199e-01   2.199e-01
	K                 2.199e-01   2.199e-01

----------------------------Description of solution----------------------------

                                       pH  =   8.203      Charge balance
                                       pe  =  -1.006      Adjusted to redox equilibrium
      Specific Conductance (µS/cm,  25°C)  = 22528
                          Density (g/cm³)  =   1.00796
                               Volume (L)  =   1.00477
                        Viscosity (mPa s)  =   0.91814
                        Activity of water  =   0.993
                 Ionic strength (mol/kgw)  =   2.140e-01
                       Mass of water (kg)  =   1.000e+00
                 Total alkalinity (eq/kg)  =  -1.962e-17
                         Temperature (°C)  =  25.00
                  Electrical balance (eq)  =  -7.332e-14
 Percent error, 100*(Cat-|An|)/(Cat+|An|)  =  -0.00
                               Iterations  =  12
                                  Total H  = 1.110124e+02
                                  Total O  = 5.550622e+01

----------------------------Distribution of species----------------------------

                                               Log       Log       Log    mole V
   Species          Molality    Activity  Molality  Activity     Gamma   cm³/mol

   OH-             2.284e-06   1.602e-06    -5.641    -5.795    -0.154     -3.47
   H+              7.888e-09   6.271e-09    -8.103    -8.203    -0.100      0.00
   H2O             5.551e+01   9.926e-01     1.744    -0.003     0.000     18.07
F             2.199e-01
   F-              2.140e-01   1.432e-01    -0.670    -0.844    -0.175     -0.90
   KF              5.897e-03   5.613e-03    -2.229    -2.251    -0.021     -0.17
   HF              1.282e-06   1.346e-06    -5.892    -5.871     0.021     12.50
   HF2-            9.946e-07   7.397e-07    -6.002    -6.131    -0.129     22.47
H(0)          5.430e-18
   H2              2.715e-18   2.859e-18   -17.566   -17.544     0.022     14.99
K             2.199e-01
   K+              2.140e-01   1.512e-01    -0.670    -0.820    -0.151      9.35
   KF              5.897e-03   5.613e-03    -2.229    -2.251    -0.021     -0.17
O(0)          0.000e+00
   O2              0.000e+00   0.000e+00   -57.303   -57.281     0.021     30.40

------------------------------Saturation indices-------------------------------

  Phase               SI** log IAP   log K(298 K,   1 atm)

  H2(g)           -14.44    -17.54   -3.10  H2
  H2O(g)           -1.51     -0.00    1.50  H2O
  O2(g)           -54.39    -57.28   -2.89  O2

**For a gas, SI = log10(fugacity). Fugacity = pressure * phi / 1 atm.
  For ideal gases, phi = 1.

Reaction step 14.

Using solution 1.	
Using temperature 1.	
Using reaction 1.	

Reaction 1.	

	  3.195e-01 moles of the following reaction have been added:

	                 Relative
	Reactant            moles

	KF                   1.00000

	                 Relative
	Element             moles
	F                    1.00000
	K                    1.00000

-----------------------------Solution composition------------------------------

	Elements           Molality       Moles

	F                 3.195e-01   3.195e-01
	K                 3.195e-01   3.195e-01

----------------------------Description of solution----------------------------

                                       pH  =   8.289      Charge balance
                                       pe  =  -1.706      Adjusted to redox equilibrium
      Specific Conductance (µS/cm,  25°C)  = 31753
                          Density (g/cm³)  =   1.01282
                               Volume (L)  =   1.00567
                        Viscosity (mPa s)  =   0.92876
                        Activity of water  =   0.989
                 Ionic strength (mol/kgw)  =   3.082e-01
                       Mass of water (kg)  =   1.000e+00
                 Total alkalinity (eq/kg)  =  -8.050e-11
                         Temperature (°C)  =  25.00
                  Electrical balance (eq)  =  -2.619e-09
 Percent error, 100*(Cat-|An|)/(Cat+|An|)  =  -0.00
                               Iterations  =   9
                                  Total H  = 1.110124e+02
                                  Total O  = 5.550622e+01

----------------------------Distribution of species----------------------------

                                               Log       Log       Log    mole V
   Species          Molality    Activity  Molality  Activity     Gamma   cm³/mol

   OH-             2.902e-06   1.949e-06    -5.537    -5.710    -0.173     -3.28
   H+              6.575e-09   5.137e-09    -8.182    -8.289    -0.107      0.00
   H2O             5.551e+01   9.893e-01     1.744    -0.005     0.000     18.07
F             3.195e-01
   F-              3.082e-01   1.934e-01    -0.511    -0.714    -0.202     -0.65
   KF              1.126e-02   1.049e-02    -1.948    -1.979    -0.031     -0.17
   HF2-            1.508e-06   1.105e-06    -5.822    -5.956    -0.135     22.55
   HF              1.388e-06   1.490e-06    -5.858    -5.827     0.031     12.50
H(0)          8.974e-17
   H2              4.487e-17   4.834e-17   -16.348   -16.316     0.032     14.99
K             3.195e-01
   K+              3.082e-01   2.092e-01    -0.511    -0.679    -0.168      9.43
   KF              1.126e-02   1.049e-02    -1.948    -1.979    -0.031     -0.17
O(0)          0.000e+00
   O2              0.000e+00   0.000e+00   -59.771   -59.740     0.031     30.40

------------------------------Saturation indices-------------------------------

  Phase               SI** log IAP   log K(298 K,   1 atm)

  H2(g)           -13.22    -16.32   -3.10  H2
  H2O(g)           -1.51     -0.00    1.50  H2O
  O2(g)           -56.85    -59.74   -2.89  O2

**For a gas, SI = log10(fugacity). Fugacity = pressure * phi / 1 atm.
  For ideal gases, phi = 1.

Reaction step 15.

Using solution 1.	
Using temperature 1.	
Using reaction 1.	

Reaction 1.	

	  3.764e-01 moles of the following reaction have been added:

	                 Relative
	Reactant            moles

	KF                   1.00000

	                 Relative
	Element             moles
	F                    1.00000
	K                    1.00000

-----------------------------Solution composition------------------------------

	Elements           Molality       Moles

	F                 3.764e-01   3.764e-01
	K                 3.764e-01   3.764e-01

----------------------------Description of solution----------------------------

                                       pH  =   8.327      Charge balance
                                       pe  =  -0.988      Adjusted to redox equilibrium
      Specific Conductance (µS/cm,  25°C)  = 36860
                          Density (g/cm³)  =   1.01557
                               Volume (L)  =   1.00620
                        Viscosity (mPa s)  =   0.93473
                        Activity of water  =   0.987
                 Ionic strength (mol/kgw)  =   3.614e-01
                       Mass of water (kg)  =   1.000e+00
                 Total alkalinity (eq/kg)  =  -4.766e-17
                         Temperature (°C)  =  25.00
                  Electrical balance (eq)  =  -1.283e-13
 Percent error, 100*(Cat-|An|)/(Cat+|An|)  =  -0.00
                               Iterations  =  10
                                  Total H  = 1.110124e+02
                                  Total O  = 5.550622e+01

----------------------------Distribution of species----------------------------

                                               Log       Log       Log    mole V
   Species          Molality    Activity  Molality  Activity     Gamma   cm³/mol

   OH-             3.224e-06   2.124e-06    -5.492    -5.673    -0.181     -3.18
   H+              6.069e-09   4.706e-09    -8.217    -8.327    -0.110      0.00
   H2O             5.551e+01   9.875e-01     1.744    -0.005     0.000     18.07
F             3.764e-01
   F-              3.614e-01   2.198e-01    -0.442    -0.658    -0.216     -0.52
   KF              1.493e-02   1.374e-02    -1.826    -1.862    -0.036     -0.17
   HF2-            1.790e-06   1.308e-06    -5.747    -5.883    -0.136     22.60
   HF              1.428e-06   1.551e-06    -5.845    -5.809     0.036     12.50
H(0)          2.723e-18
   H2              1.361e-18   1.486e-18   -17.866   -17.828     0.038     14.99
K             3.764e-01
   K+              3.614e-01   2.411e-01    -0.442    -0.618    -0.176      9.47
   KF              1.493e-02   1.374e-02    -1.826    -1.862    -0.036     -0.17
O(0)          0.000e+00
   O2              0.000e+00   0.000e+00   -56.754   -56.717     0.036     30.40

------------------------------Saturation indices-------------------------------

  Phase               SI** log IAP   log K(298 K,   1 atm)

  H2(g)           -14.73    -17.83   -3.10  H2
  H2O(g)           -1.51     -0.01    1.50  H2O
  O2(g)           -53.83    -56.72   -2.89  O2

**For a gas, SI = log10(fugacity). Fugacity = pressure * phi / 1 atm.
  For ideal gases, phi = 1.

Reaction step 16.

Using solution 1.	
Using temperature 1.	
Using reaction 1.	

Reaction 1.	

	  3.995e-01 moles of the following reaction have been added:

	                 Relative
	Reactant            moles

	KF                   1.00000

	                 Relative
	Element             moles
	F                    1.00000
	K                    1.00000

-----------------------------Solution composition------------------------------

	Elements           Molality       Moles

	F                 3.995e-01   3.995e-01
	K                 3.995e-01   3.995e-01

----------------------------Description of solution----------------------------

                                       pH  =   8.341      Charge balance
                                       pe  =  -1.668      Adjusted to redox equilibrium
      Specific Conductance (µS/cm,  25°C)  = 38899
                          Density (g/cm³)  =   1.01668
                               Volume (L)  =   1.00642
                        Viscosity (mPa s)  =   0.93715
                        Activity of water  =   0.987
                 Ionic strength (mol/kgw)  =   3.829e-01
                       Mass of water (kg)  =   1.000e+00
                 Total alkalinity (eq/kg)  =   6.553e-17
                         Temperature (°C)  =  25.00
                  Electrical balance (eq)  =  -8.358e-15
 Percent error, 100*(Cat-|An|)/(Cat+|An|)  =  -0.00
                               Iterations  =  24
                                  Total H  = 1.110124e+02
                                  Total O  = 5.550622e+01

----------------------------Distribution of species----------------------------

                                               Log       Log       Log    mole V
   Species          Molality    Activity  Molality  Activity     Gamma   cm³/mol

   OH-             3.349e-06   2.190e-06    -5.475    -5.660    -0.184     -3.14
   H+              5.895e-09   4.560e-09    -8.229    -8.341    -0.112      0.00
   H2O             5.551e+01   9.867e-01     1.744    -0.006     0.000     18.07
F             3.995e-01
   F-              3.829e-01   2.301e-01    -0.417    -0.638    -0.221     -0.46
   KF              1.653e-02   1.514e-02    -1.782    -1.820    -0.038     -0.17
   HF2-            1.902e-06   1.389e-06    -5.721    -5.857    -0.136     22.61
   HF              1.441e-06   1.574e-06    -5.841    -5.803     0.038     12.50
H(0)          5.831e-17
   H2              2.915e-17   3.198e-17   -16.535   -16.495     0.040     14.99
K             3.995e-01
   K+              3.829e-01   2.538e-01    -0.417    -0.596    -0.179      9.48
   KF              1.653e-02   1.514e-02    -1.782    -1.820    -0.038     -0.17
O(0)          0.000e+00
   O2              0.000e+00   0.000e+00   -59.422   -59.384     0.038     30.40

------------------------------Saturation indices-------------------------------

  Phase               SI** log IAP   log K(298 K,   1 atm)

  H2(g)           -13.40    -16.50   -3.10  H2
  H2O(g)           -1.51     -0.01    1.50  H2O
  O2(g)           -56.49    -59.38   -2.89  O2

**For a gas, SI = log10(fugacity). Fugacity = pressure * phi / 1 atm.
  For ideal gases, phi = 1.

Reaction step 17.

Using solution 1.	
Using temperature 1.	
Using reaction 1.	

Reaction 1.	

	  4.000e-01 moles of the following reaction have been added:

	                 Relative
	Reactant            moles

	KF                   1.00000

	                 Relative
	Element             moles
	F                    1.00000
	K                    1.00000

-----------------------------Solution composition------------------------------

	Elements           Molality       Moles

	F                 4.000e-01   4.000e-01
	K                 4.000e-01   4.000e-01

----------------------------Description of solution----------------------------

                                       pH  =   8.341      Charge balance
                                       pe  =  -1.871      Adjusted to redox equilibrium
      Specific Conductance (µS/cm,  25°C)  = 38950
                          Density (g/cm³)  =   1.01671
                               Volume (L)  =   1.00642
                        Viscosity (mPa s)  =   0.93721
                        Activity of water  =   0.987
                 Ionic strength (mol/kgw)  =   3.835e-01
                       Mass of water (kg)  =   1.000e+00
                 Total alkalinity (eq/kg)  =  -1.179e-10
                         Temperature (°C)  =  25.00
                  Electrical balance (eq)  =  -3.662e-09
 Percent error, 100*(Cat-|An|)/(Cat+|An|)  =  -0.00
                               Iterations  =  52
                                  Total H  = 1.110124e+02
                                  Total O  = 5.550622e+01

----------------------------Distribution of species----------------------------

                                               Log       Log       Log    mole V
   Species          Molality    Activity  Molality  Activity     Gamma   cm³/mol

   OH-             3.352e-06   2.192e-06    -5.475    -5.659    -0.184     -3.14
   H+              5.891e-09   4.557e-09    -8.230    -8.341    -0.112      0.00
   H2O             5.551e+01   9.867e-01     1.744    -0.006     0.000     18.07
F             4.000e-01
   F-              3.835e-01   2.304e-01    -0.416    -0.638    -0.221     -0.46
   KF              1.657e-02   1.517e-02    -1.781    -1.819    -0.038     -0.17
   HF2-            1.905e-06   1.391e-06    -5.720    -5.857    -0.136     22.62
   HF              1.441e-06   1.574e-06    -5.841    -5.803     0.038     12.50
H(0)          1.480e-16
   H2              7.402e-17   8.121e-17   -16.131   -16.090     0.040     14.99
K             4.000e-01
   K+              3.835e-01   2.541e-01    -0.416    -0.595    -0.179      9.48
   KF              1.657e-02   1.517e-02    -1.781    -1.819    -0.038     -0.17
O(0)          0.000e+00
   O2              0.000e+00   0.000e+00   -60.232   -60.193     0.038     30.40

------------------------------Saturation indices-------------------------------

  Phase               SI** log IAP   log K(298 K,   1 atm)

  H2(g)           -12.99    -16.09   -3.10  H2
  H2O(g)           -1.51     -0.01    1.50  H2O
  O2(g)           -57.30    -60.19   -2.89  O2

**For a gas, SI = log10(fugacity). Fugacity = pressure * phi / 1 atm.
  For ideal gases, phi = 1.

Reaction step 18.

Using solution 1.	
Using temperature 1.	
Using reaction 1.	

Reaction 1.	

	  4.868e-01 moles of the following reaction have been added:

	                 Relative
	Reactant            moles

	KF                   1.00000

	                 Relative
	Element             moles
	F                    1.00000
	K                    1.00000

-----------------------------Solution composition------------------------------

	Elements           Molality       Moles

	F                 4.868e-01   4.868e-01
	K                 4.868e-01   4.868e-01

----------------------------Description of solution----------------------------

                                       pH  =   8.386      Charge balance
                                       pe  =  -1.718      Adjusted to redox equilibrium
      Specific Conductance (µS/cm,  25°C)  = 46462
                          Density (g/cm³)  =   1.02087
                               Volume (L)  =   1.00726
                        Viscosity (mPa s)  =   0.94629
                        Activity of water  =   0.984
                 Ionic strength (mol/kgw)  =   4.636e-01
                       Mass of water (kg)  =   1.000e+00
                 Total alkalinity (eq/kg)  =  -1.957e-15
                         Temperature (°C)  =  25.00
                  Electrical balance (eq)  =  -2.235e-12
 Percent error, 100*(Cat-|An|)/(Cat+|An|)  =  -0.00
                               Iterations  =  61
                                  Total H  = 1.110124e+02
                                  Total O  = 5.550622e+01

----------------------------Distribution of species----------------------------

                                               Log       Log       Log    mole V
   Species          Molality    Activity  Molality  Activity     Gamma   cm³/mol

   OH-             3.794e-06   2.423e-06    -5.421    -5.616    -0.195     -2.99
   H+              5.360e-09   4.110e-09    -8.271    -8.386    -0.115      0.00
   H2O             5.551e+01   9.838e-01     1.744    -0.007     0.000     18.07
F             4.868e-01
   F-              4.636e-01   2.672e-01    -0.334    -0.573    -0.239     -0.26
   KF              2.319e-02   2.084e-02    -1.635    -1.681    -0.046     -0.17
   HF2-            2.308e-06   1.689e-06    -5.637    -5.772    -0.136     22.67
   HF              1.480e-06   1.647e-06    -5.830    -5.783     0.046     12.50
H(0)          5.836e-17
   H2              2.918e-17   3.264e-17   -16.535   -16.486     0.049     14.99
K             4.868e-01
   K+              4.636e-01   3.008e-01    -0.334    -0.522    -0.188      9.54
   KF              2.319e-02   2.084e-02    -1.635    -1.681    -0.046     -0.17
O(0)          0.000e+00
   O2              0.000e+00   0.000e+00   -59.451   -59.404     0.046     30.40

------------------------------Saturation indices-------------------------------

  Phase               SI** log IAP   log K(298 K,   1 atm)

  H2(g)           -13.39    -16.49   -3.10  H2
  H2O(g)           -1.51     -0.01    1.50  H2O
  O2(g)           -56.51    -59.40   -2.89  O2

**For a gas, SI = log10(fugacity). Fugacity = pressure * phi / 1 atm.
  For ideal gases, phi = 1.

Reaction step 19.

Using solution 1.	
Using temperature 1.	
Using reaction 1.	

Reaction 1.	

	  4.992e-01 moles of the following reaction have been added:

	                 Relative
	Reactant            moles

	KF                   1.00000

	                 Relative
	Element             moles
	F                    1.00000
	K                    1.00000

-----------------------------Solution composition------------------------------

	Elements           Molality       Moles

	F                 4.992e-01   4.992e-01
	K                 4.992e-01   4.992e-01

----------------------------Description of solution----------------------------

                                       pH  =   8.392      Charge balance
                                       pe  =  -1.615      Adjusted to redox equilibrium
      Specific Conductance (µS/cm,  25°C)  = 47512
                          Density (g/cm³)  =   1.02146
                               Volume (L)  =   1.00738
                        Viscosity (mPa s)  =   0.94759
                        Activity of water  =   0.983
                 Ionic strength (mol/kgw)  =   4.750e-01
                       Mass of water (kg)  =   1.000e+00
                 Total alkalinity (eq/kg)  =  -2.248e-15
                         Temperature (°C)  =  25.00
                  Electrical balance (eq)  =  -2.460e-12
 Percent error, 100*(Cat-|An|)/(Cat+|An|)  =  -0.00
                               Iterations  =  31
                                  Total H  = 1.110124e+02
                                  Total O  = 5.550622e+01

----------------------------Distribution of species----------------------------

                                               Log       Log       Log    mole V
   Species          Molality    Activity  Molality  Activity     Gamma   cm³/mol

   OH-             3.854e-06   2.453e-06    -5.414    -5.610    -0.196     -2.97
   H+              5.296e-09   4.057e-09    -8.276    -8.392    -0.116      0.00
   H2O             5.551e+01   9.834e-01     1.744    -0.007     0.000     18.07
F             4.992e-01
   F-              4.750e-01   2.722e-01    -0.323    -0.565    -0.242     -0.24
   KF              2.420e-02   2.170e-02    -1.616    -1.664    -0.047     -0.17
   HF2-            2.364e-06   1.730e-06    -5.626    -5.762    -0.135     22.68
   HF              1.485e-06   1.657e-06    -5.828    -5.781     0.047     12.50
H(0)          3.532e-17
   H2              1.766e-17   1.981e-17   -16.753   -16.703     0.050     14.99
K             4.992e-01
   K+              4.750e-01   3.074e-01    -0.323    -0.512    -0.189      9.54
   KF              2.420e-02   2.170e-02    -1.616    -1.664    -0.047     -0.17
O(0)          0.000e+00
   O2              0.000e+00   0.000e+00   -59.018   -58.971     0.047     30.40

------------------------------Saturation indices-------------------------------

  Phase               SI** log IAP   log K(298 K,   1 atm)

  H2(g)           -13.60    -16.70   -3.10  H2
  H2O(g)           -1.51     -0.01    1.50  H2O
  O2(g)           -56.08    -58.97   -2.89  O2

**For a gas, SI = log10(fugacity). Fugacity = pressure * phi / 1 atm.
  For ideal gases, phi = 1.

Reaction step 20.

Using solution 1.	
Using temperature 1.	
Using reaction 1.	

Reaction 1.	

	  5.239e-01 moles of the following reaction have been added:

	                 Relative
	Reactant            moles

	KF                   1.00000

	                 Relative
	Element             moles
	F                    1.00000
	K                    1.00000

-----------------------------Solution composition------------------------------

	Elements           Molality       Moles

	F                 5.239e-01   5.239e-01
	K                 5.239e-01   5.239e-01

----------------------------Description of solution----------------------------

                                       pH  =   8.403      Charge balance
                                       pe  =  -1.697      Adjusted to redox equilibrium
      Specific Conductance (µS/cm,  25°C)  = 49595
                          Density (g/cm³)  =   1.02264
                               Volume (L)  =   1.00763
                        Viscosity (mPa s)  =   0.95019
                        Activity of water  =   0.983
                 Ionic strength (mol/kgw)  =   4.976e-01
                       Mass of water (kg)  =   1.000e+00
                 Total alkalinity (eq/kg)  =  -6.095e-16
                         Temperature (°C)  =  25.00
                  Electrical balance (eq)  =  -9.294e-13
 Percent error, 100*(Cat-|An|)/(Cat+|An|)  =  -0.00
                               Iterations  =  18
                                  Total H  = 1.110124e+02
                                  Total O  = 5.550622e+01

----------------------------Distribution of species----------------------------

                                               Log       Log       Log    mole V
   Species          Molality    Activity  Molality  Activity     Gamma   cm³/mol

   OH-             3.971e-06   2.513e-06    -5.401    -5.600    -0.199     -2.93
   H+              5.176e-09   3.957e-09    -8.286    -8.403    -0.117      0.00
   H2O             5.551e+01   9.826e-01     1.744    -0.008     0.000     18.07
F             5.239e-01
   F-              4.976e-01   2.821e-01    -0.303    -0.550    -0.246     -0.18
   KF              2.628e-02   2.343e-02    -1.580    -1.630    -0.050     -0.17
   HF2-            2.472e-06   1.813e-06    -5.607    -5.742    -0.135     22.70
   HF              1.493e-06   1.674e-06    -5.826    -5.776     0.050     12.50
H(0)          4.874e-17
   H2              2.437e-17   2.749e-17   -16.613   -16.561     0.052     14.99
K             5.239e-01
   K+              4.976e-01   3.204e-01    -0.303    -0.494    -0.191      9.56
   KF              2.628e-02   2.343e-02    -1.580    -1.630    -0.050     -0.17
O(0)          0.000e+00
   O2              0.000e+00   0.000e+00   -59.306   -59.256     0.050     30.40

------------------------------Saturation indices-------------------------------

  Phase               SI** log IAP   log K(298 K,   1 atm)

  H2(g)           -13.46    -16.56   -3.10  H2
  H2O(g)           -1.51     -0.01    1.50  H2O
  O2(g)           -56.36    -59.26   -2.89  O2

**For a gas, SI = log10(fugacity). Fugacity = pressure * phi / 1 atm.
  For ideal gases, phi = 1.

Reaction step 21.

Using solution 1.	
Using temperature 1.	
Using reaction 1.	

Reaction 1.	

	  5.239e-01 moles of the following reaction have been added:

	                 Relative
	Reactant            moles

	KF                   1.00000

	                 Relative
	Element             moles
	F                    1.00000
	K                    1.00000

-----------------------------Solution composition------------------------------

	Elements           Molality       Moles

	F                 5.239e-01   5.239e-01
	K                 5.239e-01   5.239e-01

----------------------------Description of solution----------------------------

                                       pH  =   8.403      Charge balance
                                       pe  =  -2.063      Adjusted to redox equilibrium
      Specific Conductance (µS/cm,  25°C)  = 49597
                          Density (g/cm³)  =   1.02264
                               Volume (L)  =   1.00763
                        Viscosity (mPa s)  =   0.95019
                        Activity of water  =   0.983
                 Ionic strength (mol/kgw)  =   4.976e-01
                       Mass of water (kg)  =   1.000e+00
                 Total alkalinity (eq/kg)  =   8.574e-18
                         Temperature (°C)  =  25.00
                  Electrical balance (eq)  =  -3.666e-15
 Percent error, 100*(Cat-|An|)/(Cat+|An|)  =  -0.00
                               Iterations  =  35
                                  Total H  = 1.110124e+02
                                  Total O  = 5.550622e+01

----------------------------Distribution of species----------------------------

                                               Log       Log       Log    mole V
   Species          Molality    Activity  Molality  Activity     Gamma   cm³/mol

   OH-             3.971e-06   2.513e-06    -5.401    -5.600    -0.199     -2.93
   H+              5.176e-09   3.957e-09    -8.286    -8.403    -0.117      0.00
   H2O             5.551e+01   9.826e-01     1.744    -0.008     0.000     18.07
F             5.239e-01
   F-              4.976e-01   2.821e-01    -0.303    -0.550    -0.246     -0.18
   KF              2.628e-02   2.343e-02    -1.580    -1.630    -0.050     -0.17
   HF2-            2.473e-06   1.813e-06    -5.607    -5.742    -0.135     22.70
   HF              1.493e-06   1.674e-06    -5.826    -5.776     0.050     12.50
H(0)          2.624e-16
   H2              1.312e-16   1.480e-16   -15.882   -15.830     0.052     14.99
K             5.239e-01
   K+              4.976e-01   3.204e-01    -0.303    -0.494    -0.191      9.56
   KF              2.628e-02   2.343e-02    -1.580    -1.630    -0.050     -0.17
O(0)          0.000e+00
   O2              0.000e+00   0.000e+00   -60.768   -60.718     0.050     30.40

------------------------------Saturation indices-------------------------------

  Phase               SI** log IAP   log K(298 K,   1 atm)

  H2(g)           -12.73    -15.83   -3.10  H2
  H2O(g)           -1.51     -0.01    1.50  H2O
  O2(g)           -57.83    -60.72   -2.89  O2

**For a gas, SI = log10(fugacity). Fugacity = pressure * phi / 1 atm.
  For ideal gases, phi = 1.

Reaction step 22.

Using solution 1.	
Using temperature 1.	
Using reaction 1.	

Reaction 1.	

	  5.994e-01 moles of the following reaction have been added:

	                 Relative
	Reactant            moles

	KF                   1.00000

	                 Relative
	Element             moles
	F                    1.00000
	K                    1.00000

-----------------------------Solution composition------------------------------

	Elements           Molality       Moles

	F                 5.994e-01   5.994e-01
	K                 5.994e-01   5.994e-01

----------------------------Description of solution----------------------------

                                       pH  =   8.432      Charge balance
                                       pe  =  -1.848      Adjusted to redox equilibrium
      Specific Conductance (µS/cm,  25°C)  = 55847
                          Density (g/cm³)  =   1.02622
                               Volume (L)  =   1.00839
                        Viscosity (mPa s)  =   0.95816
                        Activity of water  =   0.980
                 Ionic strength (mol/kgw)  =   5.663e-01
                       Mass of water (kg)  =   1.000e+00
                 Total alkalinity (eq/kg)  =  -5.912e-12
                         Temperature (°C)  =  25.00
                  Electrical balance (eq)  =  -5.692e-10
 Percent error, 100*(Cat-|An|)/(Cat+|An|)  =  -0.00
                               Iterations  =  27
                                  Total H  = 1.110124e+02
                                  Total O  = 5.550622e+01

----------------------------Distribution of species----------------------------

                                               Log       Log       Log    mole V
   Species          Molality    Activity  Molality  Activity     Gamma   cm³/mol

   OH-             4.311e-06   2.684e-06    -5.365    -5.571    -0.206     -2.81
   H+              4.862e-09   3.696e-09    -8.313    -8.432    -0.119      0.00
   H2O             5.551e+01   9.802e-01     1.744    -0.009     0.000     18.07
F             5.994e-01
   F-              5.663e-01   3.111e-01    -0.247    -0.507    -0.260     -0.02
   KF              3.304e-02   2.900e-02    -1.481    -1.538    -0.057     -0.17
   HF2-            2.792e-06   2.059e-06    -5.554    -5.686    -0.132     22.74
   HF              1.514e-06   1.725e-06    -5.820    -5.763     0.057     12.50
H(0)          8.364e-17
   H2              4.182e-17   4.796e-17   -16.379   -16.319     0.059     14.99
K             5.994e-01
   K+              5.663e-01   3.596e-01    -0.247    -0.444    -0.197      9.60
   KF              3.304e-02   2.900e-02    -1.481    -1.538    -0.057     -0.17
O(0)          0.000e+00
   O2              0.000e+00   0.000e+00   -59.798   -59.742     0.057     30.40

------------------------------Saturation indices-------------------------------

  Phase               SI** log IAP   log K(298 K,   1 atm)

  H2(g)           -13.22    -16.32   -3.10  H2
  H2O(g)           -1.51     -0.01    1.50  H2O
  O2(g)           -56.85    -59.74   -2.89  O2

**For a gas, SI = log10(fugacity). Fugacity = pressure * phi / 1 atm.
  For ideal gases, phi = 1.

Reaction step 23.

Using solution 1.	
Using temperature 1.	
Using reaction 1.	

Reaction 1.	

	  6.122e-01 moles of the following reaction have been added:

	                 Relative
	Reactant            moles

	KF                   1.00000

	                 Relative
	Element             moles
	F                    1.00000
	K                    1.00000

-----------------------------Solution composition------------------------------

	Elements           Molality       Moles

	F                 6.122e-01   6.122e-01
	K                 6.122e-01   6.122e-01

----------------------------Description of solution----------------------------

                                       pH  =   8.437      Charge balance
                                       pe  =   8.888      Adjusted to redox equilibrium
      Specific Conductance (µS/cm,  25°C)  = 56896
                          Density (g/cm³)  =   1.02682
                               Volume (L)  =   1.00852
                        Viscosity (mPa s)  =   0.95953
                        Activity of water  =   0.980
                 Ionic strength (mol/kgw)  =   5.780e-01
                       Mass of water (kg)  =   1.000e+00
                 Total alkalinity (eq/kg)  =  -2.488e-11
                         Temperature (°C)  =  25.00
                  Electrical balance (eq)  =  -1.497e-09
 Percent error, 100*(Cat-|An|)/(Cat+|An|)  =  -0.00
                               Iterations  =  26
                                  Total H  = 1.110124e+02
                                  Total O  = 5.550622e+01

----------------------------Distribution of species----------------------------

                                               Log       Log       Log    mole V
   Species          Molality    Activity  Molality  Activity     Gamma   cm³/mol

   OH-             4.366e-06   2.711e-06    -5.360    -5.567    -0.207     -2.79
   H+              4.815e-09   3.657e-09    -8.317    -8.437    -0.119      0.00
   H2O             5.551e+01   9.798e-01     1.744    -0.009     0.000     18.07
F             6.122e-01
   F-              5.780e-01   3.159e-01    -0.238    -0.500    -0.262      0.01
   KF              3.425e-02   2.998e-02    -1.465    -1.523    -0.058     -0.17
[...]

Reaction step 12.

Using solution 1.	
Using temperature 1.	
Using pressure 1.	
Using reaction 1.	

Reaction 1.	

	  5.032e-01 moles of the following reaction have been added:

	                 Relative
	Reactant            moles

	KF                   1.00000

	                 Relative
	Element             moles
	F                    1.00000
	K                    1.00000

-----------------------------Solution composition------------------------------

	Elements           Molality       Moles

	F                 5.032e-01   5.032e-01
	K                 5.032e-01   5.032e-01

----------------------------Description of solution----------------------------

                                       pH  =   7.738      Charge balance
                                       pe  =   2.473      Adjusted to redox equilibrium
      Specific Conductance (µS/cm, 300°C)  = 126027
                          Density (g/cm³)  =   0.78614
                               Volume (L)  =   1.30923
                        Viscosity (mPa s)  =   0.10118 (solute contributions limited to 200 °C)
                        Activity of water  =   0.987
                 Ionic strength (mol/kgw)  =   2.661e-01
                       Mass of water (kg)  =   1.000e+00
                 Total alkalinity (eq/kg)  =   4.035e-12
                         Temperature (°C)  = 299.55
                           Pressure (atm)  = 299.06
                  Electrical balance (eq)  =  -2.383e-12
 Percent error, 100*(Cat-|An|)/(Cat+|An|)  =  -0.00
                               Iterations  =   8
                                  Total H  = 1.110124e+02
                                  Total O  = 5.550622e+01

----------------------------Distribution of species----------------------------

                                               Log       Log       Log    mole V
   Species          Molality    Activity  Molality  Activity     Gamma   cm³/mol

   OH-             9.517e-04   4.329e-04    -3.021    -3.364    -0.342    -97.69
   H+              2.945e-08   1.826e-08    -7.531    -7.738    -0.207      0.00
   H2O             5.551e+01   9.869e-01     1.744    -0.006     0.000     23.97
F             5.032e-01
   F-              2.651e-01   1.137e-01    -0.577    -0.944    -0.368    -90.13
   KF              2.371e-01   2.230e-01    -0.625    -0.652    -0.027     -6.02
   HF              9.096e-04   9.671e-04    -3.041    -3.015     0.027     15.09
   HF2-            4.208e-05   2.137e-05    -4.376    -4.670    -0.294    -34.23
H(0)          9.292e-25
   H2              4.646e-25   4.955e-25   -24.333   -24.305     0.028     41.58
K             5.032e-01
   K+              2.661e-01   1.222e-01    -0.575    -0.913    -0.338     15.44
   KF              2.371e-01   2.230e-01    -0.625    -0.652    -0.027     -6.02
O(0)          5.885e-11
   O2              2.943e-11   3.129e-11   -10.531   -10.505     0.027     56.48

------------------------------Saturation indices-------------------------------

  Phase               SI** log IAP   log K(572 K, 299 atm)

  H2(g)           -21.95    -24.30   -2.35  H2
  H2O(g)            1.86     -0.01   -1.87  H2O
  O2(g)            -7.98    -10.50   -2.52  O2

**For a gas, SI = log10(fugacity). Fugacity = pressure * phi / 1 atm.
  For ideal gases, phi = 1.

Reaction step 13.

Using solution 1.	
Using temperature 1.	
Using pressure 1.	
Using reaction 1.	

Reaction 1.	

	  5.032e-01 moles of the following reaction have been added:

	                 Relative
	Reactant            moles

	KF                   1.00000

	                 Relative
	Element             moles
	F                    1.00000
	K                    1.00000

-----------------------------Solution composition------------------------------

	Elements           Molality       Moles

	F                 5.032e-01   5.032e-01
	K                 5.032e-01   5.032e-01

----------------------------Description of solution----------------------------

                                       pH  =   7.738      Charge balance
                                       pe  =   2.473      Adjusted to redox equilibrium
      Specific Conductance (µS/cm, 300°C)  = 126027
                          Density (g/cm³)  =   0.78614
                               Volume (L)  =   1.30923
                        Viscosity (mPa s)  =   0.10118 (solute contributions limited to 200 °C)
                        Activity of water  =   0.987
                 Ionic strength (mol/kgw)  =   2.661e-01
                       Mass of water (kg)  =   1.000e+00
                 Total alkalinity (eq/kg)  =   4.035e-12
                         Temperature (°C)  = 299.55
                           Pressure (atm)  = 299.06
                  Electrical balance (eq)  =  -2.383e-12
 Percent error, 100*(Cat-|An|)/(Cat+|An|)  =  -0.00
                               Iterations  =   8
                                  Total H  = 1.110124e+02
                                  Total O  = 5.550622e+01

----------------------------Distribution of species----------------------------

                                               Log       Log       Log    mole V
   Species          Molality    Activity  Molality  Activity     Gamma   cm³/mol

   OH-             9.517e-04   4.329e-04    -3.021    -3.364    -0.342    -97.69
   H+              2.945e-08   1.826e-08    -7.531    -7.738    -0.207      0.00
   H2O             5.551e+01   9.869e-01     1.744    -0.006     0.000     23.97
F             5.032e-01
   F-              2.651e-01   1.137e-01    -0.577    -0.944    -0.368    -90.13
   KF              2.371e-01   2.230e-01    -0.625    -0.652    -0.027     -6.02
   HF              9.096e-04   9.671e-04    -3.041    -3.015     0.027     15.09
   HF2-            4.208e-05   2.137e-05    -4.376    -4.670    -0.294    -34.23
H(0)          9.292e-25
   H2              4.646e-25   4.955e-25   -24.333   -24.305     0.028     41.58
K             5.032e-01
   K+              2.661e-01   1.222e-01    -0.575    -0.913    -0.338     15.44
   KF              2.371e-01   2.230e-01    -0.625    -0.652    -0.027     -6.02
O(0)          5.885e-11
   O2              2.943e-11   3.129e-11   -10.531   -10.505     0.027     56.48

------------------------------Saturation indices-------------------------------

  Phase               SI** log IAP   log K(572 K, 299 atm)

  H2(g)           -21.95    -24.30   -2.35  H2
  H2O(g)            1.86     -0.01   -1.87  H2O
  O2(g)            -7.98    -10.50   -2.52  O2

**For a gas, SI = log10(fugacity). Fugacity = pressure * phi / 1 atm.
  For ideal gases, phi = 1.

Reaction step 14.

Using solution 1.	
Using temperature 1.	
Using pressure 1.	
Using reaction 1.	

Reaction 1.	

	  1.094e+00 moles of the following reaction have been added:

	                 Relative
	Reactant            moles

	KF                   1.00000

	                 Relative
	Element             moles
	F                    1.00000
	K                    1.00000

-----------------------------Solution composition------------------------------

	Elements           Molality       Moles

	F                 1.094e+00   1.094e+00
	K                 1.094e+00   1.094e+00

----------------------------Description of solution----------------------------

                                       pH  =   7.808      Charge balance
                                       pe  =   2.287      Adjusted to redox equilibrium
      Specific Conductance (µS/cm, 300°C)  = 223185
                          Density (g/cm³)  =   0.82218
                               Volume (L)  =   1.29357
                        Viscosity (mPa s)  =   0.10360 (solute contributions limited to 200 °C)
                        Activity of water  =   0.973
                 Ionic strength (mol/kgw)  =   4.801e-01
                       Mass of water (kg)  =   1.000e+00
                 Total alkalinity (eq/kg)  =  -2.702e-12
                         Temperature (°C)  = 299.55
                           Pressure (atm)  = 299.06
                  Electrical balance (eq)  =   1.433e-12
 Percent error, 100*(Cat-|An|)/(Cat+|An|)  =   0.00
                               Iterations  =   9
                                  Total H  = 1.110124e+02
                                  Total O  = 5.550622e+01

----------------------------Distribution of species----------------------------

                                               Log       Log       Log    mole V
   Species          Molality    Activity  Molality  Activity     Gamma   cm³/mol

   OH-             1.220e-03   4.829e-04    -2.914    -3.316    -0.402    -91.89
   H+              2.632e-08   1.556e-08    -7.580    -7.808    -0.228      0.00
   H2O             5.551e+01   9.732e-01     1.744    -0.012     0.000     23.97
F             1.094e+00
   KF              6.135e-01   5.493e-01    -0.212    -0.260    -0.048     -6.02
   F-              4.788e-01   1.705e-01    -0.320    -0.768    -0.449    -85.82
   HF              1.137e-03   1.270e-03    -2.944    -2.896     0.048     15.09
   HF2-            8.319e-05   4.172e-05    -4.080    -4.380    -0.300    -28.67
H(0)          1.504e-24
   H2              7.521e-25   8.447e-25   -24.124   -24.073     0.050     41.58
K             1.094e+00
   KF              6.135e-01   5.493e-01    -0.212    -0.260    -0.048     -6.02
   K+              4.801e-01   1.932e-01    -0.319    -0.714    -0.395     17.15
O(0)          1.875e-11
   O2              9.373e-12   1.047e-11   -11.028   -10.980     0.048     56.48

------------------------------Saturation indices-------------------------------

  Phase               SI** log IAP   log K(572 K, 299 atm)

  H2(g)           -21.72    -24.07   -2.35  H2
  H2O(g)            1.86     -0.01   -1.87  H2O
  O2(g)            -8.46    -10.98   -2.52  O2

**For a gas, SI = log10(fugacity). Fugacity = pressure * phi / 1 atm.
  For ideal gases, phi = 1.

Reaction step 15.

Using solution 1.	
Using temperature 1.	
Using pressure 1.	
Using reaction 1.	

Reaction 1.	

	  1.094e+00 moles of the following reaction have been added:

	                 Relative
	Reactant            moles

	KF                   1.00000

	                 Relative
	Element             moles
	F                    1.00000
	K                    1.00000

-----------------------------Solution composition------------------------------

	Elements           Molality       Moles

	F                 1.094e+00   1.094e+00
	K                 1.094e+00   1.094e+00

----------------------------Description of solution----------------------------

                                       pH  =   7.808      Charge balance
                                       pe  =   2.287      Adjusted to redox equilibrium
      Specific Conductance (µS/cm, 300°C)  = 223185
                          Density (g/cm³)  =   0.82218
                               Volume (L)  =   1.29357
                        Viscosity (mPa s)  =   0.10360 (solute contributions limited to 200 °C)
                        Activity of water  =   0.973
                 Ionic strength (mol/kgw)  =   4.801e-01
                       Mass of water (kg)  =   1.000e+00
                 Total alkalinity (eq/kg)  =  -2.702e-12
                         Temperature (°C)  = 299.55
                           Pressure (atm)  = 299.06
                  Electrical balance (eq)  =   1.433e-12
 Percent error, 100*(Cat-|An|)/(Cat+|An|)  =   0.00
                               Iterations  =   9
                                  Total H  = 1.110124e+02
                                  Total O  = 5.550622e+01

----------------------------Distribution of species----------------------------

                                               Log       Log       Log    mole V
   Species          Molality    Activity  Molality  Activity     Gamma   cm³/mol

   OH-             1.220e-03   4.829e-04    -2.914    -3.316    -0.402    -91.89
   H+              2.632e-08   1.556e-08    -7.580    -7.808    -0.228      0.00
   H2O             5.551e+01   9.732e-01     1.744    -0.012     0.000     23.97
F             1.094e+00
   KF              6.135e-01   5.493e-01    -0.212    -0.260    -0.048     -6.02
   F-              4.788e-01   1.705e-01    -0.320    -0.768    -0.449    -85.82
   HF              1.137e-03   1.270e-03    -2.944    -2.896     0.048     15.09
   HF2-            8.319e-05   4.172e-05    -4.080    -4.380    -0.300    -28.67
H(0)          1.504e-24
   H2              7.521e-25   8.447e-25   -24.124   -24.073     0.050     41.58
K             1.094e+00
   KF              6.135e-01   5.493e-01    -0.212    -0.260    -0.048     -6.02
   K+              4.801e-01   1.932e-01    -0.319    -0.714    -0.395     17.15
O(0)          1.875e-11
   O2              9.373e-12   1.047e-11   -11.028   -10.980     0.048     56.48

------------------------------Saturation indices-------------------------------

  Phase               SI** log IAP   log K(572 K, 299 atm)

  H2(g)           -21.72    -24.07   -2.35  H2
  H2O(g)            1.86     -0.01   -1.87  H2O
  O2(g)            -8.46    -10.98   -2.52  O2

**For a gas, SI = log10(fugacity). Fugacity = pressure * phi / 1 atm.
  For ideal gases, phi = 1.

Reaction step 16.

Using solution 1.	
Using temperature 1.	
Using pressure 1.	
Using reaction 1.	

Reaction 1.	

	  2.998e+00 moles of the following reaction have been added:

	                 Relative
	Reactant            moles

	KF                   1.00000

	                 Relative
	Element             moles
	F                    1.00000
	K                    1.00000

-----------------------------Solution composition------------------------------

	Elements           Molality       Moles

	F                 2.999e+00   2.998e+00
	K                 2.999e+00   2.998e+00

----------------------------Description of solution----------------------------

                                       pH  =   7.883      Charge balance
                                       pe  =   2.095      Adjusted to redox equilibrium
      Specific Conductance (µS/cm, 300°C)  = 479077
                          Density (g/cm³)  =   0.93134
                               Volume (L)  =   1.26077
                        Viscosity (mPa s)  =   0.10222 (solute contributions limited to 200 °C)
                        Activity of water  =   0.932
                 Ionic strength (mol/kgw)  =   9.837e-01
                       Mass of water (kg)  =   1.000e+00
                 Total alkalinity (eq/kg)  =   3.171e-12
                         Temperature (°C)  = 299.55
                           Pressure (atm)  = 299.06
                  Electrical balance (eq)  =  -1.383e-12
 Percent error, 100*(Cat-|An|)/(Cat+|An|)  =  -0.00
                               Iterations  =  10
                                  Total H  = 1.110124e+02
                                  Total O  = 5.550622e+01

----------------------------Distribution of species----------------------------

                                               Log       Log       Log    mole V
   Species          Molality    Activity  Molality  Activity     Gamma   cm³/mol

   OH-             1.547e-03   5.165e-04    -2.811    -3.287    -0.476    -81.91
   H+              2.327e-08   1.308e-08    -7.633    -7.883    -0.250      0.00
   H2O             5.551e+01   9.323e-01     1.744    -0.030     0.000     23.95
F             2.999e+00
   KF              2.015e+00   1.606e+00     0.304     0.206    -0.098     -6.02
   F-              9.820e-01   2.638e-01    -0.008    -0.579    -0.571    -76.63
   HF              1.396e-03   1.751e-03    -2.855    -2.757     0.098     15.09
   HF2-            1.507e-04   8.892e-05    -3.822    -4.051    -0.229    -19.23
H(0)          2.287e-24
   H2              1.144e-24   1.451e-24   -23.942   -23.838     0.103     41.58
K             2.999e+00
   KF              2.015e+00   1.606e+00     0.304     0.206    -0.098     -6.02
   K+              9.837e-01   3.399e-01    -0.007    -0.469    -0.462     19.26
O(0)          5.192e-12
   O2              2.596e-12   3.256e-12   -11.586   -11.487     0.098     56.48

------------------------------Saturation indices-------------------------------

  Phase               SI** log IAP   log K(572 K, 299 atm)

  H2(g)           -21.48    -23.84   -2.35  H2
  H2O(g)            1.84     -0.03   -1.87  H2O
  O2(g)            -8.97    -11.49   -2.52  O2

**For a gas, SI = log10(fugacity). Fugacity = pressure * phi / 1 atm.
  For ideal gases, phi = 1.

Reaction step 17.

Using solution 1.	
Using temperature 1.	
Using pressure 1.	
Using reaction 1.	

Reaction 1.	

	  2.998e+00 moles of the following reaction have been added:

	                 Relative
	Reactant            moles

	KF                   1.00000

	                 Relative
	Element             moles
	F                    1.00000
	K                    1.00000

-----------------------------Solution composition------------------------------

	Elements           Molality       Moles

	F                 2.999e+00   2.998e+00
	K                 2.999e+00   2.998e+00

----------------------------Description of solution----------------------------

                                       pH  =   7.883      Charge balance
                                       pe  =   2.095      Adjusted to redox equilibrium
      Specific Conductance (µS/cm, 300°C)  = 479077
                          Density (g/cm³)  =   0.93134
                               Volume (L)  =   1.26077
                        Viscosity (mPa s)  =   0.10222 (solute contributions limited to 200 °C)
                        Activity of water  =   0.932
                 Ionic strength (mol/kgw)  =   9.837e-01
                       Mass of water (kg)  =   1.000e+00
                 Total alkalinity (eq/kg)  =   3.171e-12
                         Temperature (°C)  = 299.55
                           Pressure (atm)  = 299.06
                  Electrical balance (eq)  =  -1.383e-12
 Percent error, 100*(Cat-|An|)/(Cat+|An|)  =  -0.00
                               Iterations  =  10
                                  Total H  = 1.110124e+02
                                  Total O  = 5.550622e+01

----------------------------Distribution of species----------------------------

                                               Log       Log       Log    mole V
   Species          Molality    Activity  Molality  Activity     Gamma   cm³/mol

   OH-             1.547e-03   5.165e-04    -2.811    -3.287    -0.476    -81.91
   H+              2.327e-08   1.308e-08    -7.633    -7.883    -0.250      0.00
   H2O             5.551e+01   9.323e-01     1.744    -0.030     0.000     23.95
F             2.999e+00
   KF              2.015e+00   1.606e+00     0.304     0.206    -0.098     -6.02
   F-              9.820e-01   2.638e-01    -0.008    -0.579    -0.571    -76.63
   HF              1.396e-03   1.751e-03    -2.855    -2.757     0.098     15.09
   HF2-            1.507e-04   8.892e-05    -3.822    -4.051    -0.229    -19.23
H(0)          2.287e-24
   H2              1.144e-24   1.451e-24   -23.942   -23.838     0.103     41.58
K             2.999e+00
   KF              2.015e+00   1.606e+00     0.304     0.206    -0.098     -6.02
   K+              9.837e-01   3.399e-01    -0.007    -0.469    -0.462     19.26
O(0)          5.192e-12
   O2              2.596e-12   3.256e-12   -11.586   -11.487     0.098     56.48

------------------------------Saturation indices-------------------------------

  Phase               SI** log IAP   log K(572 K, 299 atm)

  H2(g)           -21.48    -23.84   -2.35  H2
  H2O(g)            1.84     -0.03   -1.87  H2O
  O2(g)            -8.97    -11.49   -2.52  O2

**For a gas, SI = log10(fugacity). Fugacity = pressure * phi / 1 atm.
  For ideal gases, phi = 1.

------------------
End of simulation.
------------------

-------------------------------------
Reading input data for simulation 14.
-------------------------------------

