WARNING: Database file from DATABASE keyword is used; command line argument ignored.
   Input file: Vm_KCl_sol
  Output file: Vm_KCl_sol.out
Database file: ../database/phreeqc.dat

------------------
Reading data base.
------------------

	SOLUTION_MASTER_SPECIES
	SOLUTION_SPECIES
	PHASES
	GAS_BINARY_PARAMETERS
	EXCHANGE_MASTER_SPECIES
	EXCHANGE_SPECIES
	SURFACE_MASTER_SPECIES
	SURFACE_SPECIES
	MEAN_GAMMAS
	RATES
	END
------------------------------------
Reading input data for simulation 1.
------------------------------------

	DATABASE ../database/phreeqc.dat
	SELECTED_OUTPUT 101
	    file                 Vm_KCl_sol_101.sel
	USER_PUNCH 101
	    headings Mu SC
	    start
	10 PUNCH STR_F$(MU, 20, 12)
	20 PUNCH STR_F$(SC, 20, 10)
	    end
	SOLUTION 1
	 pH 7 charge
	END
-------------------------------------------
Beginning of initial solution calculations.
-------------------------------------------

Initial solution 1.	

-----------------------------Solution composition------------------------------

	Elements           Molality       Moles

	Pure water     

----------------------------Description of solution----------------------------

                                       pH  =   6.997      Charge balance
                                       pe  =   4.000    
      Specific Conductance (µS/cm,  25°C)  = 0
                          Density (g/cm³)  =   0.99704
                               Volume (L)  =   1.00297
                        Viscosity (mPa s)  =   0.89002
                        Activity of water  =   1.000
                 Ionic strength (mol/kgw)  =   1.006e-07
                       Mass of water (kg)  =   1.000e+00
                 Total alkalinity (eq/kg)  =   3.040e-17
                         Temperature (°C)  =  25.00
                  Electrical balance (eq)  =  -3.040e-17
 Percent error, 100*(Cat-|An|)/(Cat+|An|)  =  -0.00
                               Iterations  =   2
                                  Total H  = 1.110124e+02
                                  Total O  = 5.550622e+01

----------------------------Distribution of species----------------------------

                                               Log       Log       Log    mole V
   Species          Molality    Activity  Molality  Activity     Gamma   cm³/mol

   OH-             1.006e-07   1.006e-07    -6.997    -6.997    -0.000     -4.14
   H+              1.006e-07   1.006e-07    -6.997    -6.997    -0.000      0.00
   H2O             5.551e+01   1.000e+00     1.744    -0.000     0.000     18.07
H(0)          1.433e-25
   H2              7.166e-26   7.166e-26   -25.145   -25.145     0.000     14.99
O(0)          0.000e+00
   O2              0.000e+00   0.000e+00   -42.073   -42.073     0.000     30.40

------------------------------Saturation indices-------------------------------

  Phase               SI** log IAP   log K(298 K,   1 atm)

  H2(g)           -22.05    -25.14   -3.10  H2
  H2O(g)           -1.50     -0.00    1.50  H2O
  O2(g)           -39.18    -42.07   -2.89  O2

**For a gas, SI = log10(fugacity). Fugacity = pressure * phi / 1 atm.
  For ideal gases, phi = 1.

------------------
End of simulation.
------------------

------------------------------------
Reading input data for simulation 2.
------------------------------------

	USE solution 1
	REACTION_TEMPERATURE
	 5.000000
	REACTION_PRESSURE
	 1.000000
	REACTION
	 KCl 1
	0 0.040000 0.060040 0.090000 0.100010 0.120060 0.160000 0.199980 0.250000 0.250170 0.350020 0.400000 0.452530 0.499660 0.499920 0.700000 0.936920 1.000000 1.396060 1.917390 2.394920 2.961220 3.446570 4.059680
	USER_GRAPH
	 -headings 5.oC
	-axis_titles "KCl / (mol/kg H2O)" "KCl molar volume / (cm3/mol)"
	10 data 0, 25.349828, 24.970000, 25.373436, 25.610000, 25.300000, 25.565970, 25.650000, 25.697588, 25.720000, 26.134000, 25.989084, 26.058476, 26.058476, 26.058476, 26.484755, 26.882850, 26.929242, 27.471998, 28.060749, 28.509081, 28.972534, 29.330194, 29.723543,
	20 dim d(24)
	30 read d(1), d(2), d(3), d(4), d(5), d(6), d(7), d(8), d(9), d(10), d(11), d(12), d(13), d(14), d(15), d(16), d(17), d(18), d(19), d(20), d(21), d(22), d(23), d(24),
	40 if step_no = 1 then put(rho, 10)
	50 if step_no > 1 then Vmol = (1e3 + tot("Cl") * 74.555) / (tot("Cl") * rho) - 1e3 / (tot("Cl") * get(10))
	60 if step_no = 1 then dif = 0 else dif = Vmol - d(step_no)
	62 if step_no = 1 then goto 90
	70 plot_xy tot("Cl"), d(step_no), line_w = 0, color = Yellow #aph_x tot("Cl") # dif, str$(tc), str$(pressure), str$(step_no + get(1))
	80 plot_xy tot("Cl"), Vmol, symbol = None, color = Yellow #step_no = 264 then put(step_no + get(1), 1)
	90 end
	END
-----------------------------------------
Beginning of batch-reaction calculations.
-----------------------------------------

Reaction step 1.

Using solution 1.	
Using temperature 1.	
Using pressure 1.	
Using reaction 1.	

Reaction 1.	

	  0.000e+00 moles of the following reaction have been added:

	                 Relative
	Reactant            moles

	KCl                  1.00000

	                 Relative
	Element             moles
	Cl                   1.00000
	K                    1.00000

-----------------------------Solution composition------------------------------

	Elements           Molality       Moles

	Pure water     

----------------------------Description of solution----------------------------

                                       pH  =   7.365      Charge balance
                                       pe  =  -0.484      Adjusted to redox equilibrium
      Specific Conductance (µS/cm,   5°C)  = 0
                          Density (g/cm³)  =   0.99996
                               Volume (L)  =   1.00004
                        Viscosity (mPa s)  =   1.51818
                        Activity of water  =   1.000
                 Ionic strength (mol/kgw)  =   4.318e-08
                       Mass of water (kg)  =   1.000e+00
                 Total alkalinity (eq/kg)  =   3.041e-17
                         Temperature (°C)  =   5.00
                  Electrical balance (eq)  =  -3.041e-17
 Percent error, 100*(Cat-|An|)/(Cat+|An|)  =  -0.00
                               Iterations  =   8
                                  Total H  = 1.110124e+02
                                  Total O  = 5.550622e+01

----------------------------Distribution of species----------------------------

                                               Log       Log       Log    mole V
   Species          Molality    Activity  Molality  Activity     Gamma   cm³/mol

   OH-             4.318e-08   4.317e-08    -7.365    -7.365    -0.000     -5.54
   H+              4.318e-08   4.317e-08    -7.365    -7.365    -0.000      0.00
   H2O             5.551e+01   1.000e+00     1.744    -0.000     0.000     18.02
H(0)          3.040e-17
   H2              1.520e-17   1.520e-17   -16.818   -16.818     0.000     13.02
O(0)          0.000e+00
   O2              0.000e+00   0.000e+00   -65.876   -65.876     0.000     28.29

------------------------------Saturation indices-------------------------------

  Phase               SI** log IAP   log K(278 K,   1 atm)

  H2(g)           -13.77    -16.82   -3.05  H2
  H2O(g)           -2.06     -0.00    2.06  H2O
  O2(g)           -63.16    -65.88   -2.71  O2

**For a gas, SI = log10(fugacity). Fugacity = pressure * phi / 1 atm.
  For ideal gases, phi = 1.

Reaction step 2.

Using solution 1.	
Using temperature 1.	
Using pressure 1.	
Using reaction 1.	

Reaction 1.	

	  4.000e-02 moles of the following reaction have been added:

	                 Relative
	Reactant            moles

	KCl                  1.00000

	                 Relative
	Element             moles
	Cl                   1.00000
	K                    1.00000

-----------------------------Solution composition------------------------------

	Elements           Molality       Moles

	Cl                4.000e-02   4.000e-02
	K                 4.000e-02   4.000e-02

----------------------------Description of solution----------------------------

                                       pH  =   7.358      Charge balance
                                       pe  =  -0.506      Adjusted to redox equilibrium
      Specific Conductance (µS/cm,   5°C)  = 3382
                          Density (g/cm³)  =   1.00193
                               Volume (L)  =   1.00105
                        Viscosity (mPa s)  =   1.51577
                        Activity of water  =   0.999
                 Ionic strength (mol/kgw)  =   4.000e-02
                       Mass of water (kg)  =   1.000e+00
                 Total alkalinity (eq/kg)  =  -4.600e-17
                         Temperature (°C)  =   5.00
                  Electrical balance (eq)  =   1.513e-11
 Percent error, 100*(Cat-|An|)/(Cat+|An|)  =   0.00
                               Iterations  =   7
                                  Total H  = 1.110124e+02
                                  Total O  = 5.550622e+01

----------------------------Distribution of species----------------------------

                                               Log       Log       Log    mole V
   Species          Molality    Activity  Molality  Activity     Gamma   cm³/mol

   OH-             5.113e-08   4.248e-08    -7.291    -7.372    -0.081     -5.34
   H+              5.058e-08   4.382e-08    -7.296    -7.358    -0.062      0.00
   H2O             5.551e+01   9.986e-01     1.744    -0.001     0.000     18.02
Cl            4.000e-02
   Cl-             4.000e-02   3.333e-02    -1.398    -1.477    -0.079     17.10
   HCl             5.477e-10   5.696e-10    -9.261    -9.244     0.017     18.45
H(0)          3.427e-17
   H2              1.713e-17   1.730e-17   -16.766   -16.762     0.004     13.02
K             4.000e-02
   K+              4.000e-02   3.328e-02    -1.398    -1.478    -0.080      8.23
O(0)          0.000e+00
   O2              0.000e+00   0.000e+00   -65.994   -65.990     0.004     28.29

------------------------------Saturation indices-------------------------------

  Phase               SI** log IAP   log K(278 K,   1 atm)

  H2(g)           -13.72    -16.76   -3.05  H2
  H2O(g)           -2.06     -0.00    2.06  H2O
  O2(g)           -63.27    -65.99   -2.71  O2
  Sylvite          -3.75     -2.96    0.79  KCl

**For a gas, SI = log10(fugacity). Fugacity = pressure * phi / 1 atm.
  For ideal gases, phi = 1.

Reaction step 3.

Using solution 1.	
Using temperature 1.	
Using pressure 1.	
Using reaction 1.	

Reaction 1.	

	  6.004e-02 moles of the following reaction have been added:

	                 Relative
	Reactant            moles

	KCl                  1.00000

	                 Relative
	Element             moles
	Cl                   1.00000
	K                    1.00000

-----------------------------Solution composition------------------------------

	Elements           Molality       Moles

	Cl                6.004e-02   6.004e-02
	K                 6.004e-02   6.004e-02

----------------------------Description of solution----------------------------

                                       pH  =   7.356      Charge balance
                                       pe  =  -0.463      Adjusted to redox equilibrium
      Specific Conductance (µS/cm,   5°C)  = 4994
                          Density (g/cm³)  =   1.00291
                               Volume (L)  =   1.00156
                        Viscosity (mPa s)  =   1.51424
                        Activity of water  =   0.998
                 Ionic strength (mol/kgw)  =   6.004e-02
                       Mass of water (kg)  =   1.000e+00
                 Total alkalinity (eq/kg)  =   2.824e-17
                         Temperature (°C)  =   5.00
                  Electrical balance (eq)  =  -5.181e-17
 Percent error, 100*(Cat-|An|)/(Cat+|An|)  =  -0.00
                               Iterations  =   8
                                  Total H  = 1.110124e+02
                                  Total O  = 5.550622e+01

----------------------------Distribution of species----------------------------

                                               Log       Log       Log    mole V
   Species          Molality    Activity  Molality  Activity     Gamma   cm³/mol

   OH-             5.256e-08   4.226e-08    -7.279    -7.374    -0.095     -5.28
   H+              5.177e-08   4.401e-08    -7.286    -7.356    -0.071      0.00
   H2O             5.551e+01   9.980e-01     1.744    -0.001     0.000     18.02
Cl            6.004e-02
   Cl-             6.004e-02   4.848e-02    -1.222    -1.314    -0.093     17.14
   HCl             7.846e-10   8.322e-10    -9.105    -9.080     0.026     18.45
H(0)          2.825e-17
   H2              1.413e-17   1.433e-17   -16.850   -16.844     0.006     13.02
K             6.004e-02
   K+              6.004e-02   4.838e-02    -1.222    -1.315    -0.094      8.26
O(0)          0.000e+00
   O2              0.000e+00   0.000e+00   -65.833   -65.827     0.006     28.29

------------------------------Saturation indices-------------------------------

  Phase               SI** log IAP   log K(278 K,   1 atm)

  H2(g)           -13.80    -16.84   -3.05  H2
  H2O(g)           -2.06     -0.00    2.06  H2O
  O2(g)           -63.11    -65.83   -2.71  O2
  Sylvite          -3.42     -2.63    0.79  KCl

**For a gas, SI = log10(fugacity). Fugacity = pressure * phi / 1 atm.
  For ideal gases, phi = 1.

Reaction step 4.

Using solution 1.	
Using temperature 1.	
Using pressure 1.	
Using reaction 1.	

Reaction 1.	

	  9.000e-02 moles of the following reaction have been added:

	                 Relative
	Reactant            moles

	KCl                  1.00000

	                 Relative
	Element             moles
	Cl                   1.00000
	K                    1.00000

-----------------------------Solution composition------------------------------

	Elements           Molality       Moles

	Cl                9.000e-02   9.000e-02
	K                 9.000e-02   9.000e-02

----------------------------Description of solution----------------------------

                                       pH  =   7.354      Charge balance
                                       pe  =  -0.520      Adjusted to redox equilibrium
      Specific Conductance (µS/cm,   5°C)  = 7352
                          Density (g/cm³)  =   1.00437
                               Volume (L)  =   1.00233
                        Viscosity (mPa s)  =   1.51191
                        Activity of water  =   0.997
                 Ionic strength (mol/kgw)  =   9.000e-02
                       Mass of water (kg)  =   1.000e+00
                 Total alkalinity (eq/kg)  =   3.218e-17
                         Temperature (°C)  =   5.00
                  Electrical balance (eq)  =   2.037e-17
 Percent error, 100*(Cat-|An|)/(Cat+|An|)  =   0.00
                               Iterations  =   8
                                  Total H  = 1.110124e+02
                                  Total O  = 5.550622e+01

----------------------------Distribution of species----------------------------

                                               Log       Log       Log    mole V
   Species          Molality    Activity  Molality  Activity     Gamma   cm³/mol

   OH-             5.417e-08   4.200e-08    -7.266    -7.377    -0.111     -5.21
   H+              5.306e-08   4.424e-08    -7.275    -7.354    -0.079      0.00
   H2O             5.551e+01   9.969e-01     1.744    -0.001     0.000     18.02
Cl            9.000e-02
   Cl-             9.000e-02   7.019e-02    -1.046    -1.154    -0.108     17.18
   HCl             1.109e-09   1.211e-09    -8.955    -8.917     0.038     18.45
H(0)          3.689e-17
   H2              1.845e-17   1.885e-17   -16.734   -16.725     0.009     13.02
K             9.000e-02
   K+              9.000e-02   7.000e-02    -1.046    -1.155    -0.109      8.31
O(0)          0.000e+00
   O2              0.000e+00   0.000e+00   -66.075   -66.066     0.009     28.29

------------------------------Saturation indices-------------------------------

  Phase               SI** log IAP   log K(278 K,   1 atm)

  H2(g)           -13.68    -16.72   -3.05  H2
  H2O(g)           -2.06     -0.00    2.06  H2O
  O2(g)           -63.35    -66.07   -2.71  O2
  Sylvite          -3.10     -2.31    0.79  KCl

**For a gas, SI = log10(fugacity). Fugacity = pressure * phi / 1 atm.
  For ideal gases, phi = 1.

Reaction step 5.

Using solution 1.	
Using temperature 1.	
Using pressure 1.	
Using reaction 1.	

Reaction 1.	

	  1.000e-01 moles of the following reaction have been added:

	                 Relative
	Reactant            moles

	KCl                  1.00000

	                 Relative
	Element             moles
	Cl                   1.00000
	K                    1.00000

-----------------------------Solution composition------------------------------

	Elements           Molality       Moles

	Cl                1.000e-01   1.000e-01
	K                 1.000e-01   1.000e-01

----------------------------Description of solution----------------------------

                                       pH  =   7.354      Charge balance
                                       pe  =  -0.484      Adjusted to redox equilibrium
      Specific Conductance (µS/cm,   5°C)  = 8129
                          Density (g/cm³)  =   1.00486
                               Volume (L)  =   1.00259
                        Viscosity (mPa s)  =   1.51113
                        Activity of water  =   0.997
                 Ionic strength (mol/kgw)  =   1.000e-01
                       Mass of water (kg)  =   1.000e+00
                 Total alkalinity (eq/kg)  =   3.127e-17
                         Temperature (°C)  =   5.00
                  Electrical balance (eq)  =   6.580e-17
 Percent error, 100*(Cat-|An|)/(Cat+|An|)  =   0.00
                               Iterations  =   8
                                  Total H  = 1.110124e+02
                                  Total O  = 5.550622e+01

----------------------------Distribution of species----------------------------

                                               Log       Log       Log    mole V
   Species          Molality    Activity  Molality  Activity     Gamma   cm³/mol

   OH-             5.462e-08   4.192e-08    -7.263    -7.378    -0.115     -5.18
   H+              5.341e-08   4.431e-08    -7.272    -7.354    -0.081      0.00
   H2O             5.551e+01   9.966e-01     1.744    -0.001     0.000     18.02
Cl            1.000e-01
   Cl-             1.000e-01   7.726e-02    -1.000    -1.112    -0.112     17.20
   HCl             1.211e-09   1.335e-09    -8.917    -8.874     0.043     18.45
H(0)          3.127e-17
   H2              1.564e-17   1.602e-17   -16.806   -16.795     0.011     13.02
K             1.000e-01
   K+              1.000e-01   7.702e-02    -1.000    -1.113    -0.113      8.32
O(0)          0.000e+00
   O2              0.000e+00   0.000e+00   -65.935   -65.925     0.010     28.29

------------------------------Saturation indices-------------------------------

  Phase               SI** log IAP   log K(278 K,   1 atm)

  H2(g)           -13.75    -16.80   -3.05  H2
  H2O(g)           -2.06     -0.00    2.06  H2O
  O2(g)           -63.21    -65.92   -2.71  O2
  Sylvite          -3.02     -2.23    0.79  KCl

**For a gas, SI = log10(fugacity). Fugacity = pressure * phi / 1 atm.
  For ideal gases, phi = 1.

Reaction step 6.

Using solution 1.	
Using temperature 1.	
Using pressure 1.	
Using reaction 1.	

Reaction 1.	

	  1.201e-01 moles of the following reaction have been added:

	                 Relative
	Reactant            moles

	KCl                  1.00000

	                 Relative
	Element             moles
	Cl                   1.00000
	K                    1.00000

-----------------------------Solution composition------------------------------

	Elements           Molality       Moles

	Cl                1.201e-01   1.201e-01
	K                 1.201e-01   1.201e-01

----------------------------Description of solution----------------------------

                                       pH  =   7.352      Charge balance
                                       pe  =  -0.418      Adjusted to redox equilibrium
      Specific Conductance (µS/cm,   5°C)  = 9672
                          Density (g/cm³)  =   1.00583
                               Volume (L)  =   1.00311
                        Viscosity (mPa s)  =   1.50956
                        Activity of water  =   0.996
                 Ionic strength (mol/kgw)  =   1.201e-01
                       Mass of water (kg)  =   1.000e+00
                 Total alkalinity (eq/kg)  =   2.216e-17
                         Temperature (°C)  =   5.00
                  Electrical balance (eq)  =   2.542e-16
 Percent error, 100*(Cat-|An|)/(Cat+|An|)  =   0.00
                               Iterations  =  10
                                  Total H  = 1.110124e+02
                                  Total O  = 5.550622e+01

----------------------------Distribution of species----------------------------

                                               Log       Log       Log    mole V
   Species          Molality    Activity  Molality  Activity     Gamma   cm³/mol

   OH-             5.544e-08   4.178e-08    -7.256    -7.379    -0.123     -5.14
   H+              5.403e-08   4.443e-08    -7.267    -7.352    -0.085      0.00
   H2O             5.551e+01   9.959e-01     1.744    -0.002     0.000     18.02
Cl            1.201e-01
   Cl-             1.201e-01   9.118e-02    -0.921    -1.040    -0.119     17.22
   HCl             1.405e-09   1.580e-09    -8.852    -8.801     0.051     18.45
H(0)          2.307e-17
   H2              1.154e-17   1.188e-17   -16.938   -16.925     0.013     13.02
K             1.201e-01
   K+              1.201e-01   9.087e-02    -0.921    -1.042    -0.121      8.34
O(0)          0.000e+00
   O2              0.000e+00   0.000e+00   -65.677   -65.665     0.012     28.29

------------------------------Saturation indices-------------------------------

  Phase               SI** log IAP   log K(278 K,   1 atm)

  H2(g)           -13.88    -16.93   -3.05  H2
  H2O(g)           -2.06     -0.00    2.06  H2O
  O2(g)           -62.95    -65.67   -2.71  O2
  Sylvite          -2.87     -2.08    0.79  KCl

**For a gas, SI = log10(fugacity). Fugacity = pressure * phi / 1 atm.
  For ideal gases, phi = 1.

Reaction step 7.

Using solution 1.	
Using temperature 1.	
Using pressure 1.	
Using reaction 1.	

Reaction 1.	

	  1.600e-01 moles of the following reaction have been added:

	                 Relative
	Reactant            moles

	KCl                  1.00000

	                 Relative
	Element             moles
	Cl                   1.00000
	K                    1.00000

-----------------------------Solution composition------------------------------

	Elements           Molality       Moles

	Cl                1.600e-01   1.600e-01
	K                 1.600e-01   1.600e-01

----------------------------Description of solution----------------------------

                                       pH  =   7.350      Charge balance
                                       pe  =  -0.572      Adjusted to redox equilibrium
      Specific Conductance (µS/cm,   5°C)  = 12702
                          Density (g/cm³)  =   1.00776
                               Volume (L)  =   1.00414
                        Viscosity (mPa s)  =   1.50643
                        Activity of water  =   0.995
                 Ionic strength (mol/kgw)  =   1.600e-01
                       Mass of water (kg)  =   1.000e+00
                 Total alkalinity (eq/kg)  =   4.647e-17
                         Temperature (°C)  =   5.00
                  Electrical balance (eq)  =   1.914e-15
 Percent error, 100*(Cat-|An|)/(Cat+|An|)  =   0.00
                               Iterations  =   8
                                  Total H  = 1.110124e+02
                                  Total O  = 5.550622e+01

----------------------------Distribution of species----------------------------

                                               Log       Log       Log    mole V
   Species          Molality    Activity  Molality  Activity     Gamma   cm³/mol

   OH-             5.679e-08   4.154e-08    -7.246    -7.382    -0.136     -5.05
   H+              5.503e-08   4.463e-08    -7.259    -7.350    -0.091      0.00
   H2O             5.551e+01   9.946e-01     1.744    -0.002     0.000     18.02
Cl            1.600e-01
   Cl-             1.600e-01   1.182e-01    -0.796    -0.927    -0.132     17.27
   HCl             1.759e-09   2.057e-09    -8.755    -8.687     0.068     18.45
H(0)          4.685e-17
   H2              2.343e-17   2.435e-17   -16.630   -16.614     0.017     13.02
K             1.600e-01
   K+              1.600e-01   1.177e-01    -0.796    -0.929    -0.133      8.39
O(0)          0.000e+00
   O2              0.000e+00   0.000e+00   -66.306   -66.290     0.016     28.29

------------------------------Saturation indices-------------------------------

  Phase               SI** log IAP   log K(278 K,   1 atm)

  H2(g)           -13.57    -16.61   -3.05  H2
  H2O(g)           -2.06     -0.00    2.06  H2O
  O2(g)           -63.58    -66.29   -2.71  O2
  Sylvite          -2.65     -1.86    0.79  KCl

**For a gas, SI = log10(fugacity). Fugacity = pressure * phi / 1 atm.
  For ideal gases, phi = 1.

Reaction step 8.

Using solution 1.	
Using temperature 1.	
Using pressure 1.	
Using reaction 1.	

Reaction 1.	

	  2.000e-01 moles of the following reaction have been added:

	                 Relative
	Reactant            moles

	KCl                  1.00000

	                 Relative
	Element             moles
	Cl                   1.00000
	K                    1.00000

-----------------------------Solution composition------------------------------

	Elements           Molality       Moles

	Cl                2.000e-01   2.000e-01
	K                 2.000e-01   2.000e-01

----------------------------Description of solution----------------------------

                                       pH  =   7.349      Charge balance
                                       pe  =  -0.477      Adjusted to redox equilibrium
      Specific Conductance (µS/cm,   5°C)  = 15688
                          Density (g/cm³)  =   1.00968
                               Volume (L)  =   1.00518
                        Viscosity (mPa s)  =   1.50333
                        Activity of water  =   0.993
                 Ionic strength (mol/kgw)  =   2.000e-01
                       Mass of water (kg)  =   1.000e+00
                 Total alkalinity (eq/kg)  =   2.622e-17
                         Temperature (°C)  =   5.00
                  Electrical balance (eq)  =   7.116e-15
 Percent error, 100*(Cat-|An|)/(Cat+|An|)  =   0.00
                               Iterations  =   8
                                  Total H  = 1.110124e+02
                                  Total O  = 5.550622e+01

----------------------------Distribution of species----------------------------

                                               Log       Log       Log    mole V
   Species          Molality    Activity  Molality  Activity     Gamma   cm³/mol

   OH-             5.791e-08   4.133e-08    -7.237    -7.384    -0.146     -4.97
   H+              5.583e-08   4.479e-08    -7.253    -7.349    -0.096      0.00
   H2O             5.551e+01   9.932e-01     1.744    -0.003     0.000     18.02
Cl            2.000e-01
   Cl-             2.000e-01   1.445e-01    -0.699    -0.840    -0.141     17.31
   HCl             2.075e-09   2.524e-09    -8.683    -8.598     0.085     18.45
H(0)          3.009e-17
   H2              1.505e-17   1.579e-17   -16.823   -16.802     0.021     13.02
K             2.000e-01
   K+              2.000e-01   1.437e-01    -0.699    -0.842    -0.143      8.43
O(0)          0.000e+00
   O2              0.000e+00   0.000e+00   -65.935   -65.915     0.020     28.29

------------------------------Saturation indices-------------------------------

  Phase               SI** log IAP   log K(278 K,   1 atm)

  H2(g)           -13.76    -16.80   -3.05  H2
  H2O(g)           -2.06     -0.00    2.06  H2O
  O2(g)           -63.20    -65.92   -2.71  O2
  Sylvite          -2.48     -1.68    0.79  KCl

**For a gas, SI = log10(fugacity). Fugacity = pressure * phi / 1 atm.
  For ideal gases, phi = 1.

Reaction step 9.

Using solution 1.	
Using temperature 1.	
Using pressure 1.	
Using reaction 1.	

Reaction 1.	

	  2.500e-01 moles of the following reaction have been added:

	                 Relative
	Reactant            moles

	KCl                  1.00000

	                 Relative
	Element             moles
	Cl                   1.00000
	K                    1.00000

-----------------------------Solution composition------------------------------

	Elements           Molality       Moles

	Cl                2.500e-01   2.500e-01
	K                 2.500e-01   2.500e-01

----------------------------Description of solution----------------------------

                                       pH  =   7.347      Charge balance
                                       pe  =  -0.590      Adjusted to redox equilibrium
      Specific Conductance (µS/cm,   5°C)  = 19370
                          Density (g/cm³)  =   1.01207
                               Volume (L)  =   1.00649
                        Viscosity (mPa s)  =   1.49948
                        Activity of water  =   0.991
                 Ionic strength (mol/kgw)  =   2.500e-01
                       Mass of water (kg)  =   1.000e+00
                 Total alkalinity (eq/kg)  =   4.937e-17
                         Temperature (°C)  =   5.00
                  Electrical balance (eq)  =   3.001e-14
 Percent error, 100*(Cat-|An|)/(Cat+|An|)  =   0.00
                               Iterations  =   8
                                  Total H  = 1.110124e+02
                                  Total O  = 5.550622e+01

----------------------------Distribution of species----------------------------

                                               Log       Log       Log    mole V
   Species          Molality    Activity  Molality  Activity     Gamma   cm³/mol

   OH-             5.906e-08   4.110e-08    -7.229    -7.386    -0.157     -4.88
   H+              5.664e-08   4.496e-08    -7.247    -7.347    -0.100      0.00
   H2O             5.551e+01   9.915e-01     1.744    -0.004     0.000     18.02
Cl            2.500e-01
   Cl-             2.500e-01   1.765e-01    -0.602    -0.753    -0.151     17.35
   HCl             2.423e-09   3.096e-09    -8.616    -8.509     0.106     18.45
H(0)          5.038e-17
   H2              2.519e-17   2.676e-17   -16.599   -16.572     0.026     13.02
K             2.500e-01
   K+              2.500e-01   1.755e-01    -0.602    -0.756    -0.154      8.48
O(0)          0.000e+00
   O2              0.000e+00   0.000e+00   -66.400   -66.375     0.025     28.29

------------------------------Saturation indices-------------------------------

  Phase               SI** log IAP   log K(278 K,   1 atm)

  H2(g)           -13.53    -16.57   -3.05  H2
  H2O(g)           -2.06     -0.00    2.06  H2O
  O2(g)           -63.66    -66.37   -2.71  O2
  Sylvite          -2.30     -1.51    0.79  KCl

**For a gas, SI = log10(fugacity). Fugacity = pressure * phi / 1 atm.
  For ideal gases, phi = 1.

Reaction step 10.

Using solution 1.	
Using temperature 1.	
Using pressure 1.	
Using reaction 1.	

Reaction 1.	

	  2.502e-01 moles of the following reaction have been added:

	                 Relative
	Reactant            moles

	KCl                  1.00000

	                 Relative
	Element             moles
	Cl                   1.00000
	K                    1.00000

-----------------------------Solution composition------------------------------

	Elements           Molality       Moles

	Cl                2.502e-01   2.502e-01
	K                 2.502e-01   2.502e-01

----------------------------Description of solution----------------------------

                                       pH  =   7.347      Charge balance
                                       pe  =  -0.631      Adjusted to redox equilibrium
      Specific Conductance (µS/cm,   5°C)  = 19383
                          Density (g/cm³)  =   1.01208
                               Volume (L)  =   1.00650
                        Viscosity (mPa s)  =   1.49947
                        Activity of water  =   0.991
                 Ionic strength (mol/kgw)  =   2.502e-01
                       Mass of water (kg)  =   1.000e+00
                 Total alkalinity (eq/kg)  =   3.433e-17
                         Temperature (°C)  =   5.00
                  Electrical balance (eq)  =   3.917e-15
 Percent error, 100*(Cat-|An|)/(Cat+|An|)  =   0.00
                               Iterations  =  20
                                  Total H  = 1.110124e+02
                                  Total O  = 5.550622e+01

----------------------------Distribution of species----------------------------

                                               Log       Log       Log    mole V
   Species          Molality    Activity  Molality  Activity     Gamma   cm³/mol

   OH-             5.907e-08   4.110e-08    -7.229    -7.386    -0.157     -4.88
   H+              5.664e-08   4.496e-08    -7.247    -7.347    -0.100      0.00
   H2O             5.551e+01   9.915e-01     1.744    -0.004     0.000     18.02
Cl            2.502e-01
   Cl-             2.502e-01   1.766e-01    -0.602    -0.753    -0.151     17.35
   HCl             2.424e-09   3.098e-09    -8.615    -8.509     0.106     18.45
H(0)          6.098e-17
   H2              3.049e-17   3.239e-17   -16.516   -16.490     0.026     13.02
K             2.502e-01
   K+              2.502e-01   1.756e-01    -0.602    -0.756    -0.154      8.48
O(0)          0.000e+00
   O2              0.000e+00   0.000e+00   -66.566   -66.541     0.025     28.29

------------------------------Saturation indices-------------------------------

  Phase               SI** log IAP   log K(278 K,   1 atm)

  H2(g)           -13.44    -16.49   -3.05  H2
  H2O(g)           -2.06     -0.00    2.06  H2O
  O2(g)           -63.83    -66.54   -2.71  O2
  Sylvite          -2.30     -1.51    0.79  KCl

**For a gas, SI = log10(fugacity). Fugacity = pressure * phi / 1 atm.
  For ideal gases, phi = 1.

Reaction step 11.

Using solution 1.	
Using temperature 1.	
Using pressure 1.	
Using reaction 1.	

Reaction 1.	

	  3.500e-01 moles of the following reaction have been added:

	                 Relative
	Reactant            moles

	KCl                  1.00000

	                 Relative
	Element             moles
	Cl                   1.00000
	K                    1.00000

-----------------------------Solution composition------------------------------

	Elements           Molality       Moles

	Cl                3.500e-01   3.500e-01
	K                 3.500e-01   3.500e-01

----------------------------Description of solution----------------------------

                                       pH  =   7.344      Charge balance
                                       pe  =  -0.680      Adjusted to redox equilibrium
      Specific Conductance (µS/cm,   5°C)  = 26593
                          Density (g/cm³)  =   1.01681
                               Volume (L)  =   1.00913
                        Viscosity (mPa s)  =   1.49199
                        Activity of water  =   0.988
                 Ionic strength (mol/kgw)  =   3.500e-01
                       Mass of water (kg)  =   1.000e+00
                 Total alkalinity (eq/kg)  =   2.374e-17
                         Temperature (°C)  =   5.00
                  Electrical balance (eq)  =   2.057e-13
 Percent error, 100*(Cat-|An|)/(Cat+|An|)  =   0.00
                               Iterations  =  15
                                  Total H  = 1.110124e+02
                                  Total O  = 5.550622e+01

----------------------------Distribution of species----------------------------

                                               Log       Log       Log    mole V
   Species          Molality    Activity  Molality  Activity     Gamma   cm³/mol

   OH-             6.087e-08   4.071e-08    -7.216    -7.390    -0.175     -4.70
   H+              5.788e-08   4.524e-08    -7.237    -7.344    -0.107      0.00
   H2O             5.551e+01   9.881e-01     1.744    -0.005     0.000     18.02
Cl            3.500e-01
   Cl-             3.500e-01   2.387e-01    -0.456    -0.622    -0.166     17.43
   HCl             2.989e-09   4.212e-09    -8.524    -8.375     0.149     18.45
H(0)          7.566e-17
   H2              3.783e-17   4.117e-17   -16.422   -16.385     0.037     13.02
K             3.500e-01
   K+              3.500e-01   2.369e-01    -0.456    -0.625    -0.169      8.56
O(0)          0.000e+00
   O2              0.000e+00   0.000e+00   -66.787   -66.752     0.035     28.29

------------------------------Saturation indices-------------------------------

  Phase               SI** log IAP   log K(278 K,   1 atm)

  H2(g)           -13.34    -16.39   -3.05  H2
  H2O(g)           -2.06     -0.01    2.06  H2O
  O2(g)           -64.04    -66.75   -2.71  O2
  Sylvite          -2.04     -1.25    0.79  KCl

**For a gas, SI = log10(fugacity). Fugacity = pressure * phi / 1 atm.
  For ideal gases, phi = 1.

Reaction step 12.

Using solution 1.	
Using temperature 1.	
Using pressure 1.	
Using reaction 1.	

Reaction 1.	

	  4.000e-01 moles of the following reaction have been added:

	                 Relative
	Reactant            moles

	KCl                  1.00000

	                 Relative
	Element             moles
	Cl                   1.00000
	K                    1.00000

-----------------------------Solution composition------------------------------

	Elements           Molality       Moles

	Cl                4.000e-01   4.000e-01
	K                 4.000e-01   4.000e-01

----------------------------Description of solution----------------------------

                                       pH  =   7.343      Charge balance
                                       pe  =  -0.592      Adjusted to redox equilibrium
      Specific Conductance (µS/cm,   5°C)  = 30146
                          Density (g/cm³)  =   1.01916
                               Volume (L)  =   1.01046
                        Viscosity (mPa s)  =   1.48835
                        Activity of water  =   0.986
                 Ionic strength (mol/kgw)  =   4.000e-01
                       Mass of water (kg)  =   1.000e+00
                 Total alkalinity (eq/kg)  =   3.785e-17
                         Temperature (°C)  =   5.00
                  Electrical balance (eq)  =   3.718e-13
 Percent error, 100*(Cat-|An|)/(Cat+|An|)  =   0.00
                               Iterations  =   8
                                  Total H  = 1.110124e+02
                                  Total O  = 5.550622e+01

----------------------------Distribution of species----------------------------

                                               Log       Log       Log    mole V
   Species          Molality    Activity  Molality  Activity     Gamma   cm³/mol

   OH-             6.159e-08   4.053e-08    -7.210    -7.392    -0.182     -4.61
   H+              5.838e-08   4.536e-08    -7.234    -7.343    -0.110      0.00
   H2O             5.551e+01   9.864e-01     1.744    -0.006     0.000     18.02
Cl            4.000e-01
   Cl-             4.000e-01   2.691e-01    -0.398    -0.570    -0.172     17.47
   HCl             3.217e-09   4.761e-09    -8.493    -8.322     0.170     18.45
H(0)          5.003e-17
   H2              2.501e-17   2.755e-17   -16.602   -16.560     0.042     13.02
K             4.000e-01
   K+              4.000e-01   2.669e-01    -0.398    -0.574    -0.176      8.60
O(0)          0.000e+00
   O2              0.000e+00   0.000e+00   -66.445   -66.405     0.040     28.29

------------------------------Saturation indices-------------------------------

  Phase               SI** log IAP   log K(278 K,   1 atm)

  H2(g)           -13.51    -16.56   -3.05  H2
  H2O(g)           -2.06     -0.01    2.06  H2O
  O2(g)           -63.69    -66.40   -2.71  O2
  Sylvite          -1.94     -1.14    0.79  KCl

**For a gas, SI = log10(fugacity). Fugacity = pressure * phi / 1 atm.
  For ideal gases, phi = 1.

Reaction step 13.

Using solution 1.	
Using temperature 1.	
Using pressure 1.	
Using reaction 1.	

Reaction 1.	

	  4.525e-01 moles of the following reaction have been added:

	                 Relative
	Reactant            moles

	KCl                  1.00000

	                 Relative
	Element             moles
	Cl                   1.00000
	K                    1.00000

-----------------------------Solution composition------------------------------

	Elements           Molality       Moles

	Cl                4.525e-01   4.525e-01
	K                 4.525e-01   4.525e-01

----------------------------Description of solution----------------------------

                                       pH  =   7.342      Charge balance
                                       pe  =  -0.531      Adjusted to redox equilibrium
      Specific Conductance (µS/cm,   5°C)  = 33845
                          Density (g/cm³)  =   1.02161
                               Volume (L)  =   1.01187
                        Viscosity (mPa s)  =   1.48460
                        Activity of water  =   0.985
                 Ionic strength (mol/kgw)  =   4.525e-01
                       Mass of water (kg)  =   1.000e+00
                 Total alkalinity (eq/kg)  =   2.419e-17
                         Temperature (°C)  =   5.00
                  Electrical balance (eq)  =   7.214e-17
 Percent error, 100*(Cat-|An|)/(Cat+|An|)  =   0.00
                               Iterations  =  13
                                  Total H  = 1.110124e+02
                                  Total O  = 5.550622e+01

----------------------------Distribution of species----------------------------

                                               Log       Log       Log    mole V
   Species          Molality    Activity  Molality  Activity     Gamma   cm³/mol

   OH-             6.226e-08   4.036e-08    -7.206    -7.394    -0.188     -4.52
   H+              5.884e-08   4.547e-08    -7.230    -7.342    -0.112      0.00
   H2O             5.551e+01   9.846e-01     1.744    -0.007     0.000     18.02
Cl            4.525e-01
   Cl-             4.525e-01   3.007e-01    -0.344    -0.522    -0.178     17.50
   HCl             3.422e-09   5.332e-09    -8.466    -8.273     0.193     18.45
H(0)          3.752e-17
   H2              1.876e-17   2.093e-17   -16.727   -16.679     0.048     13.02
K             4.525e-01
   K+              4.525e-01   2.980e-01    -0.344    -0.526    -0.181      8.65
O(0)          0.000e+00
   O2              0.000e+00   0.000e+00   -66.213   -66.167     0.045     28.29

------------------------------Saturation indices-------------------------------

  Phase               SI** log IAP   log K(278 K,   1 atm)

  H2(g)           -13.63    -16.68   -3.05  H2
  H2O(g)           -2.06     -0.01    2.06  H2O
  O2(g)           -63.45    -66.17   -2.71  O2
  Sylvite          -1.84     -1.05    0.79  KCl

**For a gas, SI = log10(fugacity). Fugacity = pressure * phi / 1 atm.
  For ideal gases, phi = 1.

Reaction step 14.

Using solution 1.	
Using temperature 1.	
Using pressure 1.	
Using reaction 1.	

Reaction 1.	

	  4.997e-01 moles of the following reaction have been added:

	                 Relative
	Reactant            moles

	KCl                  1.00000

	                 Relative
	Element             moles
	Cl                   1.00000
	K                    1.00000

-----------------------------Solution composition------------------------------

	Elements           Molality       Moles

	Cl                4.997e-01   4.997e-01
	K                 4.997e-01   4.997e-01

----------------------------Description of solution----------------------------

                                       pH  =   7.341      Charge balance
                                       pe  =  -0.854      Adjusted to redox equilibrium
      Specific Conductance (µS/cm,   5°C)  = 37136
                          Density (g/cm³)  =   1.02381
                               Volume (L)  =   1.01313
                        Viscosity (mPa s)  =   1.48130
                        Activity of water  =   0.983
                 Ionic strength (mol/kgw)  =   4.997e-01
                       Mass of water (kg)  =   1.000e+00
                 Total alkalinity (eq/kg)  =   7.325e-17
                         Temperature (°C)  =   5.00
                  Electrical balance (eq)  =   1.261e-12
 Percent error, 100*(Cat-|An|)/(Cat+|An|)  =   0.00
                               Iterations  =   9
                                  Total H  = 1.110124e+02
                                  Total O  = 5.550622e+01

----------------------------Distribution of species----------------------------

                                               Log       Log       Log    mole V
   Species          Molality    Activity  Molality  Activity     Gamma   cm³/mol

   OH-             6.279e-08   4.021e-08    -7.202    -7.396    -0.194     -4.44
   H+              5.921e-08   4.556e-08    -7.228    -7.341    -0.114      0.00
   H2O             5.551e+01   9.830e-01     1.744    -0.007     0.000     18.02
Cl            4.997e-01
   Cl-             4.997e-01   3.287e-01    -0.301    -0.483    -0.182     17.53
   HCl             3.580e-09   5.841e-09    -8.446    -8.234     0.213     18.45
H(0)          1.647e-16
   H2              8.235e-17   9.292e-17   -16.084   -16.032     0.052     13.02
K             4.997e-01
   K+              4.997e-01   3.256e-01    -0.301    -0.487    -0.186      8.68
O(0)          0.000e+00
   O2              0.000e+00   0.000e+00   -67.513   -67.463     0.050     28.29

------------------------------Saturation indices-------------------------------

  Phase               SI** log IAP   log K(278 K,   1 atm)

  H2(g)           -12.99    -16.03   -3.05  H2
  H2O(g)           -2.06     -0.01    2.06  H2O
  O2(g)           -64.75    -67.46   -2.71  O2
  Sylvite          -1.76     -0.97    0.79  KCl

**For a gas, SI = log10(fugacity). Fugacity = pressure * phi / 1 atm.
  For ideal gases, phi = 1.

Reaction step 15.

Using solution 1.	
Using temperature 1.	
Using pressure 1.	
Using reaction 1.	

Reaction 1.	

	  4.999e-01 moles of the following reaction have been added:

	                 Relative
	Reactant            moles

	KCl                  1.00000

	                 Relative
	Element             moles
	Cl                   1.00000
	K                    1.00000

-----------------------------Solution composition------------------------------

	Elements           Molality       Moles

	Cl                4.999e-01   4.999e-01
	K                 4.999e-01   4.999e-01

----------------------------Description of solution----------------------------

                                       pH  =   7.341      Charge balance
                                       pe  =  -0.581      Adjusted to redox equilibrium
      Specific Conductance (µS/cm,   5°C)  = 37154
                          Density (g/cm³)  =   1.02382
                               Volume (L)  =   1.01314
                        Viscosity (mPa s)  =   1.48128
                        Activity of water  =   0.983
                 Ionic strength (mol/kgw)  =   4.999e-01
                       Mass of water (kg)  =   1.000e+00
                 Total alkalinity (eq/kg)  =   1.811e-17
                         Temperature (°C)  =   5.00
                  Electrical balance (eq)  =   8.280e-10
 Percent error, 100*(Cat-|An|)/(Cat+|An|)  =   0.00
                               Iterations  =  10
                                  Total H  = 1.110124e+02
                                  Total O  = 5.550622e+01

----------------------------Distribution of species----------------------------

                                               Log       Log       Log    mole V
   Species          Molality    Activity  Molality  Activity     Gamma   cm³/mol

   OH-             6.280e-08   4.021e-08    -7.202    -7.396    -0.194     -4.44
   H+              5.922e-08   4.556e-08    -7.228    -7.341    -0.114      0.00
   H2O             5.551e+01   9.830e-01     1.744    -0.007     0.000     18.02
Cl            4.999e-01
   Cl-             4.999e-01   3.288e-01    -0.301    -0.483    -0.182     17.53
   HCl             3.580e-09   5.844e-09    -8.446    -8.233     0.213     18.45
H(0)          4.693e-17
   H2              2.346e-17   2.648e-17   -16.630   -16.577     0.052     13.02
K             4.999e-01
   K+              4.999e-01   3.257e-01    -0.301    -0.487    -0.186      8.68
O(0)          0.000e+00
   O2              0.000e+00   0.000e+00   -66.423   -66.373     0.050     28.29

------------------------------Saturation indices-------------------------------

  Phase               SI** log IAP   log K(278 K,   1 atm)

  H2(g)           -13.53    -16.58   -3.05  H2
  H2O(g)           -2.06     -0.01    2.06  H2O
  O2(g)           -63.66    -66.37   -2.71  O2
  Sylvite          -1.76     -0.97    0.79  KCl

**For a gas, SI = log10(fugacity). Fugacity = pressure * phi / 1 atm.
  For ideal gases, phi = 1.

Reaction step 16.

Using solution 1.	
Using temperature 1.	
Using pressure 1.	
Using reaction 1.	

Reaction 1.	

	  7.000e-01 moles of the following reaction have been added:

	                 Relative
	Reactant            moles

	KCl                  1.00000

	                 Relative
	Element             moles
	Cl                   1.00000
	K                    1.00000

-----------------------------Solution composition------------------------------

	Elements           Molality       Moles

	Cl                7.000e-01   7.000e-01
	K                 7.000e-01   7.000e-01

----------------------------Description of solution----------------------------

                                       pH  =   7.338      Charge balance
                                       pe  =  -0.862      Adjusted to redox equilibrium
      Specific Conductance (µS/cm,   5°C)  = 50868
                          Density (g/cm³)  =   1.03301
                               Volume (L)  =   1.01857
                        Viscosity (mPa s)  =   1.46804
                        Activity of water  =   0.976
                 Ionic strength (mol/kgw)  =   7.000e-01
                       Mass of water (kg)  =   1.000e+00
                 Total alkalinity (eq/kg)  =  -2.426e-17
                         Temperature (°C)  =   5.00
                  Electrical balance (eq)  =   2.569e-10
 Percent error, 100*(Cat-|An|)/(Cat+|An|)  =   0.00
                               Iterations  =  12
                                  Total H  = 1.110124e+02
                                  Total O  = 5.550622e+01

----------------------------Distribution of species----------------------------

                                               Log       Log       Log    mole V
   Species          Molality    Activity  Molality  Activity     Gamma   cm³/mol

   OH-             6.453e-08   3.963e-08    -7.190    -7.402    -0.212     -4.12
   H+              6.051e-08   4.592e-08    -7.218    -7.338    -0.120      0.00
   H2O             5.551e+01   9.762e-01     1.744    -0.010     0.000     18.02
Cl            7.000e-01
   Cl-             7.000e-01   4.457e-01    -0.155    -0.351    -0.196     17.65
   HCl             4.019e-09   7.981e-09    -8.396    -8.098     0.298     18.45
H(0)          1.650e-16
   H2              8.252e-17   9.774e-17   -16.083   -16.010     0.074     13.02
K             7.000e-01
   K+              7.000e-01   4.404e-01    -0.155    -0.356    -0.201      8.83
O(0)          0.000e+00
   O2              0.000e+00   0.000e+00   -67.583   -67.513     0.070     28.29

------------------------------Saturation indices-------------------------------

  Phase               SI** log IAP   log K(278 K,   1 atm)

  H2(g)           -12.96    -16.01   -3.05  H2
  H2O(g)           -2.07     -0.01    2.06  H2O
  O2(g)           -64.80    -67.51   -2.71  O2
  Sylvite          -1.50     -0.71    0.79  KCl

**For a gas, SI = log10(fugacity). Fugacity = pressure * phi / 1 atm.
  For ideal gases, phi = 1.

Reaction step 17.

Using solution 1.	
Using temperature 1.	
Using pressure 1.	
Using reaction 1.	

Reaction 1.	

	  9.369e-01 moles of the following reaction have been added:

	                 Relative
	Reactant            moles

	KCl                  1.00000

	                 Relative
	Element             moles
	Cl                   1.00000
	K                    1.00000

-----------------------------Solution composition------------------------------

	Elements           Molality       Moles

	Cl                9.369e-01   9.369e-01
	K                 9.369e-01   9.369e-01

----------------------------Description of solution----------------------------

                                       pH  =   7.335      Charge balance
                                       pe  =  -0.817      Adjusted to redox equilibrium
      Specific Conductance (µS/cm,   5°C)  = 66643
                          Density (g/cm³)  =   1.04365
                               Volume (L)  =   1.02511
                        Viscosity (mPa s)  =   1.45393
                        Activity of water  =   0.968
                 Ionic strength (mol/kgw)  =   9.369e-01
                       Mass of water (kg)  =   1.000e+00
                 Total alkalinity (eq/kg)  =   1.005e-16
                         Temperature (°C)  =   5.00
                  Electrical balance (eq)  =   9.296e-15
 Percent error, 100*(Cat-|An|)/(Cat+|An|)  =   0.00
                               Iterations  =  17
                                  Total H  = 1.110124e+02
                                  Total O  = 5.550622e+01

----------------------------Distribution of species----------------------------

                                               Log       Log       Log    mole V
   Species          Molality    Activity  Molality  Activity     Gamma   cm³/mol

   OH-             6.586e-08   3.900e-08    -7.181    -7.409    -0.228     -3.76
   H+              6.167e-08   4.627e-08    -7.210    -7.335    -0.125      0.00
   H2O             5.551e+01   9.681e-01     1.744    -0.014     0.000     18.02
Cl            9.369e-01
   Cl-             9.369e-01   5.813e-01    -0.028    -0.236    -0.207     17.77
   HCl             4.189e-09   1.049e-08    -8.378    -7.979     0.399     18.45
H(0)          1.290e-16
   H2              6.448e-17   8.088e-17   -16.191   -16.092     0.098     13.02
K             9.369e-01
   K+              9.369e-01   5.731e-01    -0.028    -0.242    -0.214      8.99
O(0)          0.000e+00
   O2              0.000e+00   0.000e+00   -67.450   -67.356     0.094     28.29

------------------------------Saturation indices-------------------------------

  Phase               SI** log IAP   log K(278 K,   1 atm)

  H2(g)           -13.05    -16.09   -3.05  H2
  H2O(g)           -2.07     -0.01    2.06  H2O
  O2(g)           -64.64    -67.36   -2.71  O2
  Sylvite          -1.27     -0.48    0.79  KCl

**For a gas, SI = log10(fugacity). Fugacity = pressure * phi / 1 atm.
  For ideal gases, phi = 1.

Reaction step 18.

Using solution 1.	
Using temperature 1.	
Using pressure 1.	
Using reaction 1.	

Reaction 1.	

	  1.000e+00 moles of the following reaction have been added:

	                 Relative
	Reactant            moles

	KCl                  1.00000

	                 Relative
	Element             moles
	Cl                   1.00000
	K                    1.00000

-----------------------------Solution composition------------------------------

	Elements           Molality       Moles

	Cl                1.000e+00   1.000e+00
	K                 1.000e+00   1.000e+00

----------------------------Description of solution----------------------------

                                       pH  =   7.334      Charge balance
                                       pe  =  12.256      Adjusted to redox equilibrium
      Specific Conductance (µS/cm,   5°C)  = 70766
                          Density (g/cm³)  =   1.04644
                               Volume (L)  =   1.02687
                        Viscosity (mPa s)  =   1.45047
                        Activity of water  =   0.966
                 Ionic strength (mol/kgw)  =   1.000e+00
                       Mass of water (kg)  =   1.000e+00
                 Total alkalinity (eq/kg)  =   7.580e-17
                         Temperature (°C)  =   5.00
                  Electrical balance (eq)  =   1.505e-11
 Percent error, 100*(Cat-|An|)/(Cat+|An|)  =   0.00
                               Iterations  =  64
                                  Total H  = 1.110124e+02
                                  Total O  = 5.550622e+01

----------------------------Distribution of species----------------------------

                                               Log       Log       Log    mole V
   Species          Molality    Activity  Molality  Activity     Gamma   cm³/mol

   OH-             6.612e-08   3.884e-08    -7.180    -7.411    -0.231     -3.67
   H+              6.193e-08   4.636e-08    -7.208    -7.334    -0.126      0.00
   H2O             5.551e+01   9.660e-01     1.744    -0.015     0.000     18.02
Cl            1.000e+00
   Cl-             1.000e+00   6.172e-01    -0.000    -0.210    -0.210     17.80
   HCl             4.188e-09   1.116e-08    -8.378    -7.952     0.426     18.45
H(0)          0.000e+00
   H2              0.000e+00   0.000e+00   -42.343   -42.238     0.105     13.02
K             1.000e+00
   K+              1.000e+00   6.080e-01    -0.000    -0.216    -0.216      9.04
O(0)          1.361e-15
   O2              6.805e-16   8.567e-16   -15.167   -15.067     0.100     28.29

------------------------------Saturation indices-------------------------------

  Phase               SI** log IAP   log K(278 K,   1 atm)

  H2(g)           -39.19    -42.24   -3.05  H2
  H2O(g)           -2.07     -0.02    2.06  H2O
  O2(g)           -12.35    -15.07   -2.71  O2
  Sylvite          -1.22     -0.43    0.79  KCl

**For a gas, SI = log10(fugacity). Fugacity = pressure * phi / 1 atm.
  For ideal gases, phi = 1.

Reaction step 19.

Using solution 1.	
Using temperature 1.	
Using pressure 1.	
Using reaction 1.	

Reaction 1.	

	  1.396e+00 moles of the following reaction have been added:

	                 Relative
	Reactant            moles

	KCl                  1.00000

	                 Relative
	Element             moles
	Cl                   1.00000
	K                    1.00000

-----------------------------Solution composition------------------------------

	Elements           Molality       Moles

	Cl                1.396e+00   1.396e+00
	K                 1.396e+00   1.396e+00

----------------------------Description of solution----------------------------

                                       pH  =   7.329      Charge balance
                                       pe  =  -0.770      Adjusted to redox equilibrium
      Specific Conductance (µS/cm,   5°C)  = 95944
                          Density (g/cm³)  =   1.06356
                               Volume (L)  =   1.03810
                        Viscosity (mPa s)  =   1.43147
                        Activity of water  =   0.953
                 Ionic strength (mol/kgw)  =   1.396e+00
                       Mass of water (kg)  =   1.000e+00
                 Total alkalinity (eq/kg)  =   7.584e-17
                         Temperature (°C)  =   5.00
                  Electrical balance (eq)  =   4.335e-16
 Percent error, 100*(Cat-|An|)/(Cat+|An|)  =   0.00
                               Iterations  =   8
                                  Total H  = 1.110124e+02
                                  Total O  = 5.550622e+01

----------------------------Distribution of species----------------------------

                                               Log       Log       Log    mole V
   Species          Molality    Activity  Molality  Activity     Gamma   cm³/mol

   OH-             6.724e-08   3.790e-08    -7.172    -7.421    -0.249     -3.09
   H+              6.333e-08   4.684e-08    -7.198    -7.329    -0.131      0.00
   H2O             5.551e+01   9.525e-01     1.744    -0.021     0.000     18.02
Cl            1.396e+00
   Cl-             1.396e+00   8.411e-01     0.145    -0.075    -0.220     17.97
   HCl             3.912e-09   1.537e-08    -8.408    -7.813     0.594     18.45
H(0)          9.536e-17
   H2              4.768e-17   6.682e-17   -16.322   -16.175     0.147     13.02
K             1.396e+00
   K+              1.396e+00   8.258e-01     0.145    -0.083    -0.228      9.30
O(0)          0.000e+00
   O2              0.000e+00   0.000e+00   -67.344   -67.204     0.140     28.29

------------------------------Saturation indices-------------------------------

  Phase               SI** log IAP   log K(278 K,   1 atm)

  H2(g)           -13.13    -16.18   -3.05  H2
  H2O(g)           -2.08     -0.02    2.06  H2O
  O2(g)           -64.49    -67.20   -2.71  O2
  Sylvite          -0.95     -0.16    0.79  KCl

**For a gas, SI = log10(fugacity). Fugacity = pressure * phi / 1 atm.
  For ideal gases, phi = 1.

Reaction step 20.

Using solution 1.	
Using temperature 1.	
Using pressure 1.	
Using reaction 1.	

Reaction 1.	

	  1.917e+00 moles of the following reaction have been added:

	                 Relative
	Reactant            moles

	KCl                  1.00000

	                 Relative
	Element             moles
	Cl                   1.00000
	K                    1.00000

-----------------------------Solution composition------------------------------

	Elements           Molality       Moles

	Cl                1.917e+00   1.917e+00
	K                 1.917e+00   1.917e+00

----------------------------Description of solution----------------------------

                                       pH  =   7.325      Charge balance
                                       pe  =  -0.849      Adjusted to redox equilibrium
      Specific Conductance (µS/cm,   5°C)  = 127246
                          Density (g/cm³)  =   1.08507
                               Volume (L)  =   1.05334
                        Viscosity (mPa s)  =   1.41365
                        Activity of water  =   0.935
                 Ionic strength (mol/kgw)  =   1.917e+00
                       Mass of water (kg)  =   1.000e+00
                 Total alkalinity (eq/kg)  =  -1.819e-17
                         Temperature (°C)  =   5.00
                  Electrical balance (eq)  =   2.559e-09
 Percent error, 100*(Cat-|An|)/(Cat+|An|)  =   0.00
                               Iterations  =  10
                                  Total H  = 1.110124e+02
                                  Total O  = 5.550622e+01

----------------------------Distribution of species----------------------------

                                               Log       Log       Log    mole V
   Species          Molality    Activity  Molality  Activity     Gamma   cm³/mol

   OH-             6.785e-08   3.681e-08    -7.168    -7.434    -0.266     -2.36
   H+              6.465e-08   4.733e-08    -7.189    -7.325    -0.135      0.00
   H2O             5.551e+01   9.348e-01     1.744    -0.029     0.000     18.02
Cl            1.917e+00
   Cl-             1.917e+00   1.137e+00     0.283     0.056    -0.227     18.16
   HCl             3.205e-09   2.098e-08    -8.494    -7.678     0.816     18.45
H(0)          1.234e-16
   H2              6.172e-17   9.813e-17   -16.210   -16.008     0.201     13.02
K             1.917e+00
   K+              1.917e+00   1.111e+00     0.283     0.046    -0.237      9.64
O(0)          0.000e+00
   O2              0.000e+00   0.000e+00   -67.746   -67.554     0.192     28.29

------------------------------Saturation indices-------------------------------

  Phase               SI** log IAP   log K(278 K,   1 atm)

  H2(g)           -12.96    -16.01   -3.05  H2
  H2O(g)           -2.09     -0.03    2.06  H2O
  O2(g)           -64.84    -67.55   -2.71  O2
  Sylvite          -0.69      0.10    0.79  KCl

**For a gas, SI = log10(fugacity). Fugacity = pressure * phi / 1 atm.
  For ideal gases, phi = 1.

Reaction step 21.

Using solution 1.	
Using temperature 1.	
Using pressure 1.	
Using reaction 1.	

Reaction 1.	

	  2.395e+00 moles of the following reaction have been added:

	                 Relative
	Reactant            moles

	KCl                  1.00000

	                 Relative
	Element             moles
	Cl                   1.00000
	K                    1.00000

-----------------------------Solution composition------------------------------

	Elements           Molality       Moles

	Cl                2.395e+00   2.395e+00
	K                 2.395e+00   2.395e+00

----------------------------Description of solution----------------------------

                                       pH  =   7.322      Charge balance
                                       pe  =   0.952      Adjusted to redox equilibrium
      Specific Conductance (µS/cm,   5°C)  = 154027
                          Density (g/cm³)  =   1.10380
                               Volume (L)  =   1.06772
                        Viscosity (mPa s)  =   1.40438
                        Activity of water  =   0.919
                 Ionic strength (mol/kgw)  =   2.395e+00
                       Mass of water (kg)  =   1.000e+00
                 Total alkalinity (eq/kg)  =  -5.531e-16
                         Temperature (°C)  =   5.00
                  Electrical balance (eq)  =  -1.719e-08
 Percent error, 100*(Cat-|An|)/(Cat+|An|)  =  -0.00
                               Iterations  =  19
                                  Total H  = 1.110124e+02
                                  Total O  = 5.550622e+01

----------------------------Distribution of species----------------------------

                                               Log       Log       Log    mole V
   Species          Molality    Activity  Molality  Activity     Gamma   cm³/mol

   OH-             6.800e-08   3.594e-08    -7.168    -7.444    -0.277     -1.72
   H+              6.549e-08   4.763e-08    -7.184    -7.322    -0.138      0.00
   H2O             5.551e+01   9.186e-01     1.744    -0.037     0.000     18.02
Cl            2.395e+00
   Cl-             2.395e+00   1.411e+00     0.379     0.150    -0.230     18.33
   HCl             2.508e-09   2.621e-08    -8.601    -7.581     1.019     18.45
H(0)          2.780e-20
   H2              1.390e-20   2.480e-20   -19.857   -19.606     0.251     13.02
K             2.395e+00
   K+              2.395e+00   1.375e+00     0.379     0.138    -0.241      9.94
O(0)          0.000e+00
   O2              0.000e+00   0.000e+00   -60.614   -60.375     0.239     28.29

------------------------------Saturation indices-------------------------------

  Phase               SI** log IAP   log K(278 K,   1 atm)

  H2(g)           -16.56    -19.61   -3.05  H2
  H2O(g)           -2.09     -0.04    2.06  H2O
  O2(g)           -57.66    -60.37   -2.71  O2
  Sylvite          -0.51      0.29    0.79  KCl

**For a gas, SI = log10(fugacity). Fugacity = pressure * phi / 1 atm.
  For ideal gases, phi = 1.

Reaction step 22.

Using solution 1.	
Using temperature 1.	
Using pressure 1.	
Using reaction 1.	

Reaction 1.	

	  2.961e+00 moles of the following reaction have been added:

	                 Relative
	Reactant            moles

	KCl                  1.00000

	                 Relative
	Element             moles
	Cl                   1.00000
	K                    1.00000

-----------------------------Solution composition------------------------------

	Elements           Molality       Moles

	Cl                2.961e+00   2.961e+00
	K                 2.961e+00   2.961e+00

----------------------------Description of solution----------------------------

                                       pH  =   7.320      Charge balance
                                       pe  =  -0.348      Adjusted to redox equilibrium
      Specific Conductance (µS/cm,   5°C)  = 183309
                          Density (g/cm³)  =   1.12483
                               Volume (L)  =   1.08529
                        Viscosity (mPa s)  =   1.40196
                        Activity of water  =   0.899
                 Ionic strength (mol/kgw)  =   2.961e+00
                       Mass of water (kg)  =   1.000e+00
                 Total alkalinity (eq/kg)  =  -6.913e-17
                         Temperature (°C)  =   5.00
                  Electrical balance (eq)  =  -3.058e-10
 Percent error, 100*(Cat-|An|)/(Cat+|An|)  =  -0.00
                               Iterations  =  13
                                  Total H  = 1.110124e+02
                                  Total O  = 5.550622e+01

----------------------------Distribution of species----------------------------

                                               Log       Log       Log    mole V
   Species          Molality    Activity  Molality  Activity     Gamma   cm³/mol

   OH-             6.793e-08   3.505e-08    -7.168    -7.455    -0.287     -0.96
   H+              6.614e-08   4.782e-08    -7.180    -7.320    -0.141      0.00
   H2O             5.551e+01   8.993e-01     1.744    -0.046     0.000     18.02
Cl            2.961e+00
   Cl-             2.961e+00   1.743e+00     0.471     0.241    -0.230     18.50
   HCl             1.786e-09   3.252e-08    -8.748    -7.488     1.260     18.45
H(0)          9.733e-18
   H2              4.866e-18   9.957e-18   -17.313   -17.002     0.311     13.02
K             2.961e+00
   K+              2.961e+00   1.693e+00     0.471     0.229    -0.243     10.29
O(0)          0.000e+00
   O2              0.000e+00   0.000e+00   -65.897   -65.601     0.296     28.29

------------------------------Saturation indices-------------------------------

  Phase               SI** log IAP   log K(278 K,   1 atm)

  H2(g)           -13.96    -17.00   -3.05  H2
  H2O(g)           -2.10     -0.05    2.06  H2O
  O2(g)           -62.89    -65.60   -2.71  O2
  Sylvite          -0.32      0.47    0.79  KCl

**For a gas, SI = log10(fugacity). Fugacity = pressure * phi / 1 atm.
  For ideal gases, phi = 1.

Reaction step 23.

Using solution 1.	
Using temperature 1.	
Using pressure 1.	
Using reaction 1.	

Reaction 1.	

	  3.447e+00 moles of the following reaction have been added:

	                 Relative
	Reactant            moles

	KCl                  1.00000

	                 Relative
	Element             moles
	Cl                   1.00000
	K                    1.00000

-----------------------------Solution composition------------------------------

	Elements           Molality       Moles

	Cl                3.447e+00   3.447e+00
	K                 3.447e+00   3.447e+00

----------------------------Description of solution----------------------------

                                       pH  =   7.320      Charge balance
                                       pe  =  12.397      Adjusted to redox equilibrium
      Specific Conductance (µS/cm,   5°C)  = 206164
                          Density (g/cm³)  =   1.14188
                               Volume (L)  =   1.10078
                        Viscosity (mPa s)  =   1.40717
                        Activity of water  =   0.883
                 Ionic strength (mol/kgw)  =   3.447e+00
                       Mass of water (kg)  =   1.000e+00
                 Total alkalinity (eq/kg)  =   1.177e-16
                         Temperature (°C)  =   5.00
                  Electrical balance (eq)  =  -1.179e-09
 Percent error, 100*(Cat-|An|)/(Cat+|An|)  =  -0.00
                               Iterations  =  34
                                  Total H  = 1.110124e+02
                                  Total O  = 5.550622e+01

----------------------------Distribution of species----------------------------

                                               Log       Log       Log    mole V
   Species          Molality    Activity  Molality  Activity     Gamma   cm³/mol

   OH-             6.775e-08   3.438e-08    -7.169    -7.464    -0.295     -0.33
   H+              6.646e-08   4.786e-08    -7.177    -7.320    -0.143      0.00
   H2O             5.551e+01   8.828e-01     1.744    -0.054     0.000     18.02
Cl            3.447e+00
   Cl-             3.447e+00   2.035e+00     0.537     0.309    -0.229     18.64
   HCl             1.297e-09   3.799e-08    -8.887    -7.420     1.467     18.45
H(0)          0.000e+00
   H2              0.000e+00   0.000e+00   -42.853   -42.492     0.362     13.02
K             3.447e+00
   K+              3.447e+00   1.970e+00     0.537     0.294    -0.243     10.59
O(0)          2.084e-15
   O2              1.042e-15   2.305e-15   -14.982   -14.637     0.345     28.29

------------------------------Saturation indices-------------------------------

  Phase               SI** log IAP   log K(278 K,   1 atm)

  H2(g)           -39.45    -42.49   -3.05  H2
  H2O(g)           -2.11     -0.05    2.06  H2O
  O2(g)           -11.92    -14.64   -2.71  O2
  Sylvite          -0.19      0.60    0.79  KCl

**For a gas, SI = log10(fugacity). Fugacity = pressure * phi / 1 atm.
  For ideal gases, phi = 1.

Reaction step 24.

Using solution 1.	
Using temperature 1.	
Using pressure 1.	
Using reaction 1.	

Reaction 1.	

	  4.060e+00 moles of the following reaction have been added:

	                 Relative
	Reactant            moles

	KCl                  1.00000

	                 Relative
	Element             moles
	Cl                   1.00000
	K                    1.00000

-----------------------------Solution composition------------------------------

	Elements           Molality       Moles

	Cl                4.060e+00   4.060e+00
	K                 4.060e+00   4.060e+00

----------------------------Description of solution----------------------------

                                       pH  =   7.321      Charge balance
                                       pe  =  -1.040      Adjusted to redox equilibrium
      Specific Conductance (µS/cm,   5°C)  = 231968
                          Density (g/cm³)  =   1.16216
                               Volume (L)  =   1.12091
                        Viscosity (mPa s)  =   1.42325
                        Activity of water  =   0.862
                 Ionic strength (mol/kgw)  =   4.060e+00
                       Mass of water (kg)  =   1.000e+00
                 Total alkalinity (eq/kg)  =   7.206e-17
                         Temperature (°C)  =   5.00
                  Electrical balance (eq)  =  -8.933e-11
 Percent error, 100*(Cat-|An|)/(Cat+|An|)  =  -0.00
                               Iterations  =  20
                                  Total H  = 1.110124e+02
                                  Total O  = 5.550622e+01

----------------------------Distribution of species----------------------------

                                               Log       Log       Log    mole V
   Species          Molality    Activity  Molality  Activity     Gamma   cm³/mol

   OH-             6.745e-08   3.363e-08    -7.171    -7.473    -0.302      0.47
   H+              6.661e-08   4.778e-08    -7.176    -7.321    -0.144      0.00
   H2O             5.551e+01   8.620e-01     1.744    -0.065     0.000     18.02
Cl            4.060e+00
   Cl-             4.060e+00   2.415e+00     0.608     0.383    -0.226     18.81
   HCl             8.421e-10   4.500e-08    -9.075    -7.347     1.728     18.45
H(0)          1.799e-16
   H2              8.994e-17   2.400e-16   -16.046   -15.620     0.426     13.02
K             4.060e+00
   K+              4.060e+00   2.329e+00     0.608     0.367    -0.241     10.96
O(0)          0.000e+00
   O2              0.000e+00   0.000e+00   -68.808   -68.402     0.406     28.29

------------------------------Saturation indices-------------------------------

  Phase               SI** log IAP   log K(278 K,   1 atm)

  H2(g)           -12.57    -15.62   -3.05  H2
  H2O(g)           -2.12     -0.06    2.06  H2O
  O2(g)           -65.69    -68.40   -2.71  O2
  Sylvite          -0.04      0.75    0.79  KCl

**For a gas, SI = log10(fugacity). Fugacity = pressure * phi / 1 atm.
  For ideal gases, phi = 1.

------------------
End of simulation.
------------------

------------------------------------
Reading input data for simulation 3.
------------------------------------

	USE solution 1
	REACTION_TEMPERATURE
	 15.000000
	REACTION_PRESSURE
	 1.000000
	REACTION
	 KCl 1
	0 0.040000 0.040030 0.050000 0.100000 0.100441 0.160000 0.201434 0.250000 0.400000 0.444040 0.500000 0.507863 0.700000 0.900260 1.000000 1.000000 1.370830 1.862350 2.000000 2.359040 2.870070 3.000000 3.402230 3.951200 4.000000 4.401560
	USER_GRAPH
	 -headings 15.oC
	10 data 0, 26.224716, 25.564679, 26.264072, 27.104647, 25.965980, 26.705174, 26.368031, 26.856938, 27.127262, 27.304753, 27.558722, 27.111600, 27.619350, 27.844738, 28.208321, 28.021094, 28.460594, 28.937808, 29.200572, 29.365373, 29.738428, 29.912825, 30.091087, 30.421522, 30.502478, 30.658258,
	20 dim d(27)
	30 read d(1), d(2), d(3), d(4), d(5), d(6), d(7), d(8), d(9), d(10), d(11), d(12), d(13), d(14), d(15), d(16), d(17), d(18), d(19), d(20), d(21), d(22), d(23), d(24), d(25), d(26), d(27),
	40 if step_no = 1 then put(rho, 10)
	50 if step_no > 1 then Vmol = (1e3 + tot("Cl") * 74.555) / (tot("Cl") * rho) - 1e3 / (tot("Cl") * get(10))
	60 if step_no = 1 then dif = 0 else dif = Vmol - d(step_no)
	62 if step_no = 1 then goto 90
	70 plot_xy tot("Cl"), d(step_no), line_w = 0, color = Red #aph_x tot("Cl") # dif, str$(tc), str$(pressure), str$(step_no + get(1))
	80 plot_xy tot("Cl"), Vmol, symbol = None, color = Red #step_no = 264 then put(step_no + get(1), 1)
	90 end
	END
-----------------------------------------
Beginning of batch-reaction calculations.
-----------------------------------------

Reaction step 1.

Using solution 1.	
Using temperature 1.	
Using pressure 1.	
Using reaction 1.	

Reaction 1.	

	  0.000e+00 moles of the following reaction have been added:

	                 Relative
	Reactant            moles

	KCl                  1.00000

	                 Relative
	Element             moles
	Cl                   1.00000
	K                    1.00000

-----------------------------Solution composition------------------------------

	Elements           Molality       Moles

	Pure water     

----------------------------Description of solution----------------------------

                                       pH  =   7.172      Charge balance
                                       pe  =  -0.315      Adjusted to redox equilibrium
      Specific Conductance (µS/cm,  15°C)  = 0
                          Density (g/cm³)  =   0.99910
                               Volume (L)  =   1.00090
                        Viscosity (mPa s)  =   1.13757
                        Activity of water  =   1.000
                 Ionic strength (mol/kgw)  =   6.737e-08
                       Mass of water (kg)  =   1.000e+00
                 Total alkalinity (eq/kg)  =   9.842e-17
                         Temperature (°C)  =  15.00
                  Electrical balance (eq)  =  -9.842e-17
 Percent error, 100*(Cat-|An|)/(Cat+|An|)  =  -0.00
                               Iterations  =   7
                                  Total H  = 1.110124e+02
                                  Total O  = 5.550622e+01

----------------------------Distribution of species----------------------------

                                               Log       Log       Log    mole V
[...]
   Cl-             1.421e+00   7.744e-01     0.153    -0.111    -0.264     18.28
   HCl             3.537e-08   1.423e-07    -7.451    -6.847     0.605     23.02
H(0)          4.886e-29
   H2              2.443e-29   3.444e-29   -28.612   -28.463     0.149     18.28
K             1.421e+00
   K+              1.421e+00   7.583e-01     0.153    -0.120    -0.273     11.24
O(0)          2.965e-17
   O2              1.483e-17   2.056e-17   -16.829   -16.687     0.142     33.86

------------------------------Saturation indices-------------------------------

  Phase               SI** log IAP   log K(372 K,   1 atm)

  H2(g)           -25.37    -28.46   -3.09  H2
  H2O(g)           -0.04     -0.02    0.02  H2O
  O2(g)           -13.57    -16.69   -3.11  O2
  Sylvite          -1.43     -0.23    1.20  KCl

**For a gas, SI = log10(fugacity). Fugacity = pressure * phi / 1 atm.
  For ideal gases, phi = 1.

Reaction step 11.

Using solution 1.	
Using temperature 1.	
Using pressure 1.	
Using reaction 1.	

Reaction 1.	

	  2.013e+00 moles of the following reaction have been added:

	                 Relative
	Reactant            moles

	KCl                  1.00000

	                 Relative
	Element             moles
	Cl                   1.00000
	K                    1.00000

-----------------------------Solution composition------------------------------

	Elements           Molality       Moles

	Cl                2.013e+00   2.013e+00
	K                 2.013e+00   2.013e+00

----------------------------Description of solution----------------------------

                                       pH  =   6.069      Charge balance
                                       pe  =   6.503      Adjusted to redox equilibrium
      Specific Conductance (µS/cm,  99°C)  = 442198
                          Density (g/cm³)  =   1.04252
                               Volume (L)  =   1.10318
                        Viscosity (mPa s)  =   0.33183
                        Activity of water  =   0.932
                 Ionic strength (mol/kgw)  =   2.013e+00
                       Mass of water (kg)  =   1.000e+00
                 Total alkalinity (eq/kg)  =   1.525e-12
                         Temperature (°C)  =  99.00
                  Electrical balance (eq)  =  -3.650e-12
 Percent error, 100*(Cat-|An|)/(Cat+|An|)  =  -0.00
                               Iterations  =   6
                                  Total H  = 1.110124e+02
                                  Total O  = 5.550622e+01

----------------------------Distribution of species----------------------------

                                               Log       Log       Log    mole V
   Species          Molality    Activity  Molality  Activity     Gamma   cm³/mol

   OH-             1.255e-06   6.083e-07    -5.901    -6.216    -0.315     -0.87
   H+              1.228e-06   8.529e-07    -5.911    -6.069    -0.158      0.00
   H2O             5.551e+01   9.316e-01     1.744    -0.031     0.000     18.78
Cl            2.013e+00
   Cl-             2.013e+00   1.073e+00     0.304     0.031    -0.273     18.62
   HCl             2.771e-08   1.992e-07    -7.557    -6.701     0.857     23.02
H(0)          3.458e-29
   H2              1.729e-29   2.813e-29   -28.762   -28.551     0.211     18.28
K             2.013e+00
   K+              2.013e+00   1.046e+00     0.304     0.019    -0.285     11.43
O(0)          3.716e-17
   O2              1.858e-17   2.953e-17   -16.731   -16.530     0.201     33.86

------------------------------Saturation indices-------------------------------

  Phase               SI** log IAP   log K(372 K,   1 atm)

  H2(g)           -25.46    -28.55   -3.09  H2
  H2O(g)           -0.05     -0.03    0.02  H2O
  O2(g)           -13.41    -16.53   -3.11  O2
  Sylvite          -1.15      0.05    1.20  KCl

**For a gas, SI = log10(fugacity). Fugacity = pressure * phi / 1 atm.
  For ideal gases, phi = 1.

Reaction step 12.

Using solution 1.	
Using temperature 1.	
Using pressure 1.	
Using reaction 1.	

Reaction 1.	

	  3.552e+00 moles of the following reaction have been added:

	                 Relative
	Reactant            moles

	KCl                  1.00000

	                 Relative
	Element             moles
	Cl                   1.00000
	K                    1.00000

-----------------------------Solution composition------------------------------

	Elements           Molality       Moles

	Cl                3.552e+00   3.552e+00
	K                 3.552e+00   3.552e+00

----------------------------Description of solution----------------------------

                                       pH  =   6.067      Charge balance
                                       pe  =   6.513      Adjusted to redox equilibrium
      Specific Conductance (µS/cm,  99°C)  = 665290
                          Density (g/cm³)  =   1.09681
                               Volume (L)  =   1.15316
                        Viscosity (mPa s)  =   0.36761
                        Activity of water  =   0.879
                 Ionic strength (mol/kgw)  =   3.552e+00
                       Mass of water (kg)  =   1.000e+00
                 Total alkalinity (eq/kg)  =   1.254e-17
                         Temperature (°C)  =  99.00
                  Electrical balance (eq)  =  -1.547e-15
 Percent error, 100*(Cat-|An|)/(Cat+|An|)  =  -0.00
                               Iterations  =   6
                                  Total H  = 1.110124e+02
                                  Total O  = 5.550622e+01

----------------------------Distribution of species----------------------------

                                               Log       Log       Log    mole V
   Species          Molality    Activity  Molality  Activity     Gamma   cm³/mol

   OH-             1.267e-06   5.708e-07    -5.897    -6.243    -0.346      1.74
   H+              1.257e-06   8.578e-07    -5.901    -6.067    -0.166      0.00
   H2O             5.551e+01   8.792e-01     1.744    -0.056     0.000     18.78
Cl            3.552e+00
   Cl-             3.552e+00   1.875e+00     0.550     0.273    -0.277     19.25
   HCl             1.078e-08   3.502e-07    -7.967    -6.456     1.512     23.02
H(0)          2.301e-29
   H2              1.150e-29   2.715e-29   -28.939   -28.566     0.373     18.28
K             3.552e+00
   K+              3.552e+00   1.808e+00     0.550     0.257    -0.293     11.85
O(0)          2.494e-17
   O2              1.247e-17   2.825e-17   -16.904   -16.549     0.355     33.86

------------------------------Saturation indices-------------------------------

  Phase               SI** log IAP   log K(372 K,   1 atm)

  H2(g)           -25.48    -28.57   -3.09  H2
  H2O(g)           -0.08     -0.06    0.02  H2O
  O2(g)           -13.43    -16.55   -3.11  O2
  Sylvite          -0.67      0.53    1.20  KCl

**For a gas, SI = log10(fugacity). Fugacity = pressure * phi / 1 atm.
  For ideal gases, phi = 1.

------------------
End of simulation.
------------------

-------------------------------------
Reading input data for simulation 10.
-------------------------------------

	USE solution 1
	REACTION_TEMPERATURE
	 125.000000
	REACTION_PRESSURE
	 1.000000
	REACTION
	 KCl 1
	0 0.100900 1.428700 3.571800
	USER_GRAPH
	 -headings 125.oC
	10 data 0, 18.415546, 28.144320, 29.918849,
	20 dim d(4)
	30 read d(1), d(2), d(3), d(4),
	40 if step_no = 1 then put(rho, 10)
	50 if step_no > 1 then Vmol = (1e3 + tot("Cl") * 74.555) / (tot("Cl") * rho) - 1e3 / (tot("Cl") * get(10))
	60 if step_no = 1 then dif = 0 else dif = Vmol - d(step_no)
	62 if step_no = 1 then goto 90
	70 plot_xy tot("Cl"), d(step_no), line_w = 0, color = Blue #aph_x tot("Cl") # dif, str$(tc), str$(pressure), str$(step_no + get(1))
	80 plot_xy tot("Cl"), Vmol, symbol = None, color = Blue #step_no = 6 then put(step_no + get(1), 1)
	90 end
	END
-----------------------------------------
Beginning of batch-reaction calculations.
-----------------------------------------

Reaction step 1.

Using solution 1.	
Using temperature 1.	
Using pressure 1.	
Using reaction 1.	

Reaction 1.	

	  0.000e+00 moles of the following reaction have been added:

	                 Relative
	Reactant            moles

	KCl                  1.00000

	                 Relative
	Element             moles
	Cl                   1.00000
	K                    1.00000

-----------------------------Solution composition------------------------------

	Elements           Molality       Moles

	Pure water     

----------------------------Description of solution----------------------------

                                       pH  =   5.945      Charge balance
                                       pe  =   0.727      Adjusted to redox equilibrium
      Specific Conductance (µS/cm, 125°C)  = 1
                          Density (g/cm³)  =   0.93903
                               Volume (L)  =   1.06493
                        Viscosity (mPa s)  =   0.22210
                        Activity of water  =   1.000
                 Ionic strength (mol/kgw)  =   1.137e-06
                       Mass of water (kg)  =   1.000e+00
                 Total alkalinity (eq/kg)  =   3.040e-17
                         Temperature (°C)  = 125.00
                           Pressure (atm)  =  2.29
                  Electrical balance (eq)  =  -3.040e-17
 Percent error, 100*(Cat-|An|)/(Cat+|An|)  =  -0.00
                               Iterations  =   9
                                  Total H  = 1.110124e+02
                                  Total O  = 5.550622e+01

----------------------------Distribution of species----------------------------

                                               Log       Log       Log    mole V
   Species          Molality    Activity  Molality  Activity     Gamma   cm³/mol

   OH-             1.137e-06   1.135e-06    -5.944    -5.945    -0.001     -8.39
   H+              1.137e-06   1.135e-06    -5.944    -5.945    -0.001      0.00
   H2O             5.551e+01   1.000e+00     1.744    -0.000     0.000     19.19
H(0)          3.040e-17
   H2              1.520e-17   1.520e-17   -16.818   -16.818     0.000     19.23
O(0)          5.536e-36
   O2              2.768e-36   2.768e-36   -35.558   -35.558     0.000     34.83

------------------------------Saturation indices-------------------------------

  Phase               SI** log IAP   log K(398 K,   2 atm)

  H2(g)           -13.79    -16.82   -3.03  H2
  H2O(g)            0.35     -0.00   -0.35  H2O
  O2(g)           -32.47    -35.56   -3.09  O2

**For a gas, SI = log10(fugacity). Fugacity = pressure * phi / 1 atm.
  For ideal gases, phi = 1.

Reaction step 2.

Using solution 1.	
Using temperature 1.	
Using pressure 1.	
Using reaction 1.	

Reaction 1.	

	  1.009e-01 moles of the following reaction have been added:

	                 Relative
	Reactant            moles

	KCl                  1.00000

	                 Relative
	Element             moles
	Cl                   1.00000
	K                    1.00000

-----------------------------Solution composition------------------------------

	Elements           Molality       Moles

	Cl                1.009e-01   1.009e-01
	K                 1.009e-01   1.009e-01

----------------------------Description of solution----------------------------

                                       pH  =   5.925      Charge balance
                                       pe  =   0.742      Adjusted to redox equilibrium
      Specific Conductance (µS/cm, 125°C)  = 36438
                          Density (g/cm³)  =   0.94383
                               Volume (L)  =   1.06749
                        Viscosity (mPa s)  =   0.22491
                        Activity of water  =   0.997
                 Ionic strength (mol/kgw)  =   1.009e-01
                       Mass of water (kg)  =   1.000e+00
                 Total alkalinity (eq/kg)  =  -1.303e-15
                         Temperature (°C)  = 125.00
                           Pressure (atm)  =  2.29
                  Electrical balance (eq)  =  -4.204e-14
 Percent error, 100*(Cat-|An|)/(Cat+|An|)  =  -0.00
                               Iterations  =   8
                                  Total H  = 1.110124e+02
                                  Total O  = 5.550622e+01

----------------------------Distribution of species----------------------------

                                               Log       Log       Log    mole V
   Species          Molality    Activity  Molality  Activity     Gamma   cm³/mol

   OH-             1.517e-06   1.082e-06    -5.819    -5.966    -0.147     -7.42
   H+              1.503e-06   1.188e-06    -5.823    -5.925    -0.102      0.00
   H2O             5.551e+01   9.966e-01     1.744    -0.001     0.000     19.19
Cl            1.009e-01
   Cl-             1.009e-01   7.246e-02    -0.996    -1.140    -0.144     14.67
   HCl             1.444e-08   1.594e-08    -7.840    -7.797     0.043     23.52
H(0)          3.030e-17
   H2              1.515e-17   1.553e-17   -16.820   -16.809     0.011     19.23
K             1.009e-01
   K+              1.009e-01   7.218e-02    -0.996    -1.142    -0.145     10.65
O(0)          5.149e-36
   O2              2.575e-36   2.635e-36   -35.589   -35.579     0.010     34.83

------------------------------Saturation indices-------------------------------

  Phase               SI** log IAP   log K(398 K,   2 atm)

  H2(g)           -13.78    -16.81   -3.03  H2
  H2O(g)            0.35     -0.00   -0.35  H2O
  O2(g)           -32.49    -35.58   -3.09  O2
  Sylvite          -3.56     -2.28    1.27  KCl

**For a gas, SI = log10(fugacity). Fugacity = pressure * phi / 1 atm.
  For ideal gases, phi = 1.

Reaction step 3.

Using solution 1.	
Using temperature 1.	
Using pressure 1.	
Using reaction 1.	

Reaction 1.	

	  1.429e+00 moles of the following reaction have been added:

	                 Relative
	Reactant            moles

	KCl                  1.00000

	                 Relative
	Element             moles
	Cl                   1.00000
	K                    1.00000

-----------------------------Solution composition------------------------------

	Elements           Molality       Moles

	Cl                1.429e+00   1.429e+00
	K                 1.429e+00   1.429e+00

----------------------------Description of solution----------------------------

                                       pH  =   5.885      Charge balance
                                       pe  =   5.752      Adjusted to redox equilibrium
      Specific Conductance (µS/cm, 125°C)  = 389962
                          Density (g/cm³)  =   1.00098
                               Volume (L)  =   1.10543
                        Viscosity (mPa s)  =   0.25327
                        Activity of water  =   0.951
                 Ionic strength (mol/kgw)  =   1.429e+00
                       Mass of water (kg)  =   1.000e+00
                 Total alkalinity (eq/kg)  =   5.274e-13
                         Temperature (°C)  = 125.00
                           Pressure (atm)  =  2.29
                  Electrical balance (eq)  =   9.850e-11
 Percent error, 100*(Cat-|An|)/(Cat+|An|)  =   0.00
                               Iterations  =   5
                                  Total H  = 1.110124e+02
                                  Total O  = 5.550622e+01

----------------------------Distribution of species----------------------------

                                               Log       Log       Log    mole V
   Species          Molality    Activity  Molality  Activity     Gamma   cm³/mol

   OH-             1.934e-06   9.418e-07    -5.714    -6.026    -0.313     -3.59
   H+              1.890e-06   1.302e-06    -5.724    -5.885    -0.162      0.00
   H2O             5.551e+01   9.514e-01     1.744    -0.022     0.000     19.19
Cl            1.429e+00
   Cl-             1.429e+00   7.472e-01     0.155    -0.127    -0.281     16.77
   HCl             4.444e-08   1.802e-07    -7.352    -6.744     0.608     23.52
H(0)          2.529e-27
   H2              1.264e-27   1.786e-27   -26.898   -26.748     0.150     19.23
K             1.429e+00
   K+              1.429e+00   7.309e-01     0.155    -0.136    -0.291     11.58
O(0)          2.613e-16
   O2              1.306e-16   1.815e-16   -15.884   -15.741     0.143     34.83

------------------------------Saturation indices-------------------------------

  Phase               SI** log IAP   log K(398 K,   2 atm)

  H2(g)           -23.72    -26.75   -3.03  H2
  H2O(g)            0.33     -0.02   -0.35  H2O
  O2(g)           -12.65    -15.74   -3.09  O2
  Sylvite          -1.54     -0.26    1.27  KCl

**For a gas, SI = log10(fugacity). Fugacity = pressure * phi / 1 atm.
  For ideal gases, phi = 1.

Reaction step 4.

Using solution 1.	
Using temperature 1.	
Using pressure 1.	
Using reaction 1.	

Reaction 1.	

	  3.572e+00 moles of the following reaction have been added:

	                 Relative
	Reactant            moles

	KCl                  1.00000

	                 Relative
	Element             moles
	Cl                   1.00000
	K                    1.00000

-----------------------------Solution composition------------------------------

	Elements           Molality       Moles

	Cl                3.572e+00   3.572e+00
	K                 3.572e+00   3.572e+00

----------------------------Description of solution----------------------------

                                       pH  =   5.878      Charge balance
                                       pe  =   5.734      Adjusted to redox equilibrium
      Specific Conductance (µS/cm, 125°C)  = 771658
                          Density (g/cm³)  =   1.07913
                               Volume (L)  =   1.17344
                        Viscosity (mPa s)  =   0.29788
                        Activity of water  =   0.879
                 Ionic strength (mol/kgw)  =   3.572e+00
                       Mass of water (kg)  =   1.000e+00
                 Total alkalinity (eq/kg)  =  -2.258e-16
                         Temperature (°C)  = 125.00
                           Pressure (atm)  =  2.29
                  Electrical balance (eq)  =   1.554e-09
 Percent error, 100*(Cat-|An|)/(Cat+|An|)  =   0.00
                               Iterations  =   6
                                  Total H  = 1.110124e+02
                                  Total O  = 5.550622e+01

----------------------------Distribution of species----------------------------

                                               Log       Log       Log    mole V
   Species          Molality    Activity  Molality  Activity     Gamma   cm³/mol

   OH-             1.995e-06   8.557e-07    -5.700    -6.068    -0.368      0.62
   H+              1.981e-06   1.323e-06    -5.703    -5.878    -0.175      0.00
   H2O             5.551e+01   8.786e-01     1.744    -0.056     0.000     19.19
Cl            3.572e+00
   Cl-             3.572e+00   1.800e+00     0.553     0.255    -0.298     18.20
   HCl             1.332e-08   4.413e-07    -7.875    -6.355     1.520     23.52
H(0)          1.688e-27
   H2              8.438e-28   2.001e-27   -27.074   -26.699     0.375     19.23
K             3.572e+00
   K+              3.572e+00   1.733e+00     0.553     0.239    -0.314     12.18
O(0)          1.083e-16
   O2              5.417e-17   1.233e-16   -16.266   -15.909     0.357     34.83

------------------------------Saturation indices-------------------------------

  Phase               SI** log IAP   log K(398 K,   2 atm)

  H2(g)           -23.67    -26.70   -3.03  H2
  H2O(g)            0.30     -0.06   -0.35  H2O
  O2(g)           -12.82    -15.91   -3.09  O2
  Sylvite          -0.78      0.49    1.27  KCl

**For a gas, SI = log10(fugacity). Fugacity = pressure * phi / 1 atm.
  For ideal gases, phi = 1.

------------------
End of simulation.
------------------

-------------------------------------
Reading input data for simulation 11.
-------------------------------------

