WARNING: Database file from DATABASE keyword is used; command line argument ignored.
   Input file: Vm_KF
  Output file: Vm_KF.out
Database file: ../database/phreeqc.dat

------------------
Reading data base.
------------------

	SOLUTION_MASTER_SPECIES
	SOLUTION_SPECIES
	PHASES
	GAS_BINARY_PARAMETERS
	EXCHANGE_MASTER_SPECIES
	EXCHANGE_SPECIES
	SURFACE_MASTER_SPECIES
	SURFACE_SPECIES
	MEAN_GAMMAS
	RATES
	END
------------------------------------
Reading input data for simulation 1.
------------------------------------

	database ../database/phreeqc.dat
	SELECTED_OUTPUT 101
	    file                 Vm_KF_101.sel
	USER_PUNCH 101
	    headings Mu SC
	    start
	10 PUNCH STR_F$(MU, 20, 12)
	20 PUNCH STR_F$(SC, 20, 10)
	    end
	SOLUTION 1
	 pH 7 charge
	END
-------------------------------------------
Beginning of initial solution calculations.
-------------------------------------------

Initial solution 1.	

-----------------------------Solution composition------------------------------

	Elements           Molality       Moles

	Pure water     

----------------------------Description of solution----------------------------

                                       pH  =   6.997      Charge balance
                                       pe  =   4.000    
      Specific Conductance (µS/cm,  25°C)  = 0
                          Density (g/cm³)  =   0.99704
                               Volume (L)  =   1.00297
                        Viscosity (mPa s)  =   0.89002
                        Activity of water  =   1.000
                 Ionic strength (mol/kgw)  =   1.006e-07
                       Mass of water (kg)  =   1.000e+00
                 Total alkalinity (eq/kg)  =   3.040e-17
                         Temperature (°C)  =  25.00
                  Electrical balance (eq)  =  -3.040e-17
 Percent error, 100*(Cat-|An|)/(Cat+|An|)  =  -0.00
                               Iterations  =   2
                                  Total H  = 1.110124e+02
                                  Total O  = 5.550622e+01

----------------------------Distribution of species----------------------------

                                               Log       Log       Log    mole V
   Species          Molality    Activity  Molality  Activity     Gamma   cm³/mol

   OH-             1.006e-07   1.006e-07    -6.997    -6.997    -0.000     -4.14
   H+              1.006e-07   1.006e-07    -6.997    -6.997    -0.000      0.00
   H2O             5.551e+01   1.000e+00     1.744    -0.000     0.000     18.07
H(0)          1.433e-25
   H2              7.166e-26   7.166e-26   -25.145   -25.145     0.000     14.99
O(0)          0.000e+00
   O2              0.000e+00   0.000e+00   -42.073   -42.073     0.000     30.40

------------------------------Saturation indices-------------------------------

  Phase               SI** log IAP   log K(298 K,   1 atm)

  H2(g)           -22.05    -25.14   -3.10  H2
  H2O(g)           -1.50     -0.00    1.50  H2O
  O2(g)           -39.18    -42.07   -2.89  O2

**For a gas, SI = log10(fugacity). Fugacity = pressure * phi / 1 atm.
  For ideal gases, phi = 1.

------------------
End of simulation.
------------------

------------------------------------
Reading input data for simulation 2.
------------------------------------

	SOLUTION 1
	 pH 7 charge
	END
-------------------------------------------
Beginning of initial solution calculations.
-------------------------------------------

Initial solution 1.	

-----------------------------Solution composition------------------------------

	Elements           Molality       Moles

	Pure water     

----------------------------Description of solution----------------------------

                                       pH  =   6.997      Charge balance
                                       pe  =   4.000    
      Specific Conductance (µS/cm,  25°C)  = 0
                          Density (g/cm³)  =   0.99704
                               Volume (L)  =   1.00297
                        Viscosity (mPa s)  =   0.89002
                        Activity of water  =   1.000
                 Ionic strength (mol/kgw)  =   1.006e-07
                       Mass of water (kg)  =   1.000e+00
                 Total alkalinity (eq/kg)  =   3.040e-17
                         Temperature (°C)  =  25.00
                  Electrical balance (eq)  =  -3.040e-17
 Percent error, 100*(Cat-|An|)/(Cat+|An|)  =  -0.00
                               Iterations  =   2
                                  Total H  = 1.110124e+02
                                  Total O  = 5.550622e+01

----------------------------Distribution of species----------------------------

                                               Log       Log       Log    mole V
   Species          Molality    Activity  Molality  Activity     Gamma   cm³/mol

   OH-             1.006e-07   1.006e-07    -6.997    -6.997    -0.000     -4.14
   H+              1.006e-07   1.006e-07    -6.997    -6.997    -0.000      0.00
   H2O             5.551e+01   1.000e+00     1.744    -0.000     0.000     18.07
H(0)          1.433e-25
   H2              7.166e-26   7.166e-26   -25.145   -25.145     0.000     14.99
O(0)          0.000e+00
   O2              0.000e+00   0.000e+00   -42.073   -42.073     0.000     30.40

------------------------------Saturation indices-------------------------------

  Phase               SI** log IAP   log K(298 K,   1 atm)

  H2(g)           -22.05    -25.14   -3.10  H2
  H2O(g)           -1.50     -0.00    1.50  H2O
  O2(g)           -39.18    -42.07   -2.89  O2

**For a gas, SI = log10(fugacity). Fugacity = pressure * phi / 1 atm.
  For ideal gases, phi = 1.

------------------
End of simulation.
------------------

------------------------------------
Reading input data for simulation 3.
------------------------------------

	USE solution 1
	REACTION_TEMPERATURE
	 25.000000
	REACTION
	 KF 1
	0 0.012280 0.028260 0.040150 0.049540 0.059930 0.079770 0.100050 0.100150 0.150040 0.178480 0.199620 0.219910 0.319470 0.376370 0.399450 0.400030 0.486820 0.499190 0.523870 0.523900 0.599360 0.612230 0.700190 0.717790 0.799700 0.800000 0.900290 0.911410 0.999900 1.106000 1.142550 1.166380 1.166400 1.328780 1.525000 1.717230 1.917640 2.051100 2.051100 2.178010 2.409210 2.608150 2.808210 3.028550 3.028600 3.160960 3.284980 3.537640 3.790730 4.047310 4.186500 4.186570 4.480890 4.737210 4.997520 5.259670 5.523250 5.635790 5.635800 5.790320 6.060150 6.603540 6.879170 6.936600 6.937000 7.160330 7.438740 7.725310 8.011640 8.299290 8.590590 8.873750 8.874000 8.884030 10.716680 10.717000 12.670000 12.670760 
	USER_GRAPH
	 -headings 25.oC-0.atm
	-axis_scale y_axis -150 20
	 -axis_titles "KF / (mol/kg H2O)^0.5" "KF molar volume / (cm3/mol)"
	10 data 0, 7.971000, 8.107000, 8.172000, 8.199000, 8.262000, 8.352000, 8.411000, 8.421000, 8.576000, 8.435000, 8.711000, 8.761000, 8.989000, 9.108000, 9.156000, 9.156000, 9.319000, 9.336000, 8.799000, 8.782000, 9.503000, 9.646000, 9.658000, 9.846000, 9.837000, 9.801000, 9.938000, 9.853000, 10.135000, 10.196000, 10.209000, 10.100000, 10.060000, 10.477000, 10.670000, 10.923000, 11.162000, 11.280000, 11.266000, 11.378000, 11.707000, 11.911000, 12.104000, 12.286000, 12.299000, 12.376000, 12.492000, 12.720000, 12.938000, 13.161000, 13.228000, 13.224000, 13.514000, 13.693000, 13.885000, 14.051000, 14.214000, 14.198000, 14.202000, 14.374000, 14.532000, 14.835000, 14.984000, 14.937000, 14.938000, 15.127000, 15.270000, 15.410000, 15.544000, 15.676000, 15.808000, 15.837000, 15.836000, 15.952000, 16.554000, 16.554000, 17.168000, 17.167000, 
	20 dim d(79)
	30 for i = 1 to step_no : read d(i) : next i
	40 if step_no = 1 then put(rho, 10)
	50 if step_no > 1 then F = tot("F") : Vmol = (1e3 + F * 58.1004) / (F * rho) - 1e3 / (F * get(10))
	60 if step_no = 1 then dif = 0 else dif = Vmol - d(step_no)
	70 put(abs(dif) + get(1), 1) : put(1 + get(2), 2)
	100 if step_no = 1 then goto 150
	110 plot_xy F^0.5, d(step_no), symbol = Circle, line_w = 0, color = Orange
	120 plot_xy F^0.5, Vmol, symbol = None, color = Orange
	130 if step_no = 79 then print 'Laliberte, 25C, AAD ' + str_f$(get(1) / get(2), 0, 3) + ' cm3/mol'
	150 end
	END
-----------------------------------------
Beginning of batch-reaction calculations.
-----------------------------------------

Reaction step 1.

Using solution 1.	
Using temperature 1.	
Using reaction 1.	

Reaction 1.	

	  0.000e+00 moles of the following reaction have been added:

	                 Relative
	Reactant            moles

	KF                   1.00000

	                 Relative
	Element             moles
	F                    1.00000
	K                    1.00000

-----------------------------Solution composition------------------------------

	Elements           Molality       Moles

	Pure water     

----------------------------Description of solution----------------------------

                                       pH  =   6.997      Charge balance
                                       pe  =   4.000      Adjusted to redox equilibrium
      Specific Conductance (µS/cm,  25°C)  = 0
                          Density (g/cm³)  =   0.99704
                               Volume (L)  =   1.00297
                        Viscosity (mPa s)  =   0.89002
                        Activity of water  =   1.000
                 Ionic strength (mol/kgw)  =   1.006e-07
                       Mass of water (kg)  =   1.000e+00
                 Total alkalinity (eq/kg)  =   3.040e-17
                         Temperature (°C)  =  25.00
                  Electrical balance (eq)  =  -3.040e-17
 Percent error, 100*(Cat-|An|)/(Cat+|An|)  =  -0.00
                               Iterations  =   0
                                  Total H  = 1.110124e+02
                                  Total O  = 5.550622e+01

----------------------------Distribution of species----------------------------

                                               Log       Log       Log    mole V
   Species          Molality    Activity  Molality  Activity     Gamma   cm³/mol

   OH-             1.006e-07   1.006e-07    -6.997    -6.997    -0.000     -4.14
   H+              1.006e-07   1.006e-07    -6.997    -6.997    -0.000      0.00
   H2O             5.551e+01   1.000e+00     1.744    -0.000     0.000     18.07
H(0)          1.433e-25
   H2              7.166e-26   7.166e-26   -25.145   -25.145     0.000     14.99
O(0)          0.000e+00
   O2              0.000e+00   0.000e+00   -42.073   -42.073     0.000     30.40

------------------------------Saturation indices-------------------------------

  Phase               SI** log IAP   log K(298 K,   1 atm)

  H2(g)           -22.05    -25.14   -3.10  H2
  H2O(g)           -1.50     -0.00    1.50  H2O
  O2(g)           -39.18    -42.07   -2.89  O2

**For a gas, SI = log10(fugacity). Fugacity = pressure * phi / 1 atm.
  For ideal gases, phi = 1.

Reaction step 2.

Using solution 1.	
Using temperature 1.	
Using reaction 1.	

Reaction 1.	

	  1.228e-02 moles of the following reaction have been added:

	                 Relative
	Reactant            moles

	KF                   1.00000

	                 Relative
	Element             moles
	F                    1.00000
	K                    1.00000

-----------------------------Solution composition------------------------------

	Elements           Molality       Moles

	F                 1.228e-02   1.228e-02
	K                 1.228e-02   1.228e-02

----------------------------Description of solution----------------------------

                                       pH  =   7.602      Charge balance
                                       pe  =  -0.768      Adjusted to redox equilibrium
      Specific Conductance (µS/cm,  25°C)  = 1461
                          Density (g/cm³)  =   0.99766
                               Volume (L)  =   1.00306
                        Viscosity (mPa s)  =   0.89275
                        Activity of water  =   1.000
                 Ionic strength (mol/kgw)  =   1.225e-02
                       Mass of water (kg)  =   1.000e+00
                 Total alkalinity (eq/kg)  =  -3.594e-12
                         Temperature (°C)  =  25.00
                  Electrical balance (eq)  =  -1.104e-10
 Percent error, 100*(Cat-|An|)/(Cat+|An|)  =  -0.00
                               Iterations  =   7
                                  Total H  = 1.110124e+02
                                  Total O  = 5.550622e+01

----------------------------Distribution of species----------------------------

                                               Log       Log       Log    mole V
   Species          Molality    Activity  Molality  Activity     Gamma   cm³/mol

   OH-             4.545e-07   4.050e-07    -6.342    -6.393    -0.050     -4.02
   H+              2.755e-08   2.498e-08    -7.560    -7.602    -0.043      0.00
   H2O             5.551e+01   9.996e-01     1.744    -0.000     0.000     18.07
F             1.228e-02
   F-              1.225e-02   1.092e-02    -1.912    -1.962    -0.050     -1.51
   KF              2.963e-05   2.962e-05    -4.528    -4.528    -0.000     -0.32
   HF              4.078e-07   4.089e-07    -6.390    -6.388     0.001     12.50
   HF2-            1.917e-08   1.713e-08    -7.717    -7.766    -0.049     22.14
H(0)          3.021e-17
   H2              1.510e-17   1.515e-17   -16.821   -16.820     0.001     14.99
K             1.228e-02
   K+              1.225e-02   1.092e-02    -1.912    -1.962    -0.050      9.08
   KF              2.963e-05   2.962e-05    -4.528    -4.528    -0.000     -0.32
O(0)          0.000e+00
   O2              0.000e+00   0.000e+00   -58.725   -58.724     0.001     30.40

------------------------------Saturation indices-------------------------------

  Phase               SI** log IAP   log K(298 K,   1 atm)

  H2(g)           -13.72    -16.82   -3.10  H2
  H2O(g)           -1.50     -0.00    1.50  H2O
  O2(g)           -55.83    -58.72   -2.89  O2

**For a gas, SI = log10(fugacity). Fugacity = pressure * phi / 1 atm.
  For ideal gases, phi = 1.

Reaction step 3.

Using solution 1.	
Using temperature 1.	
Using reaction 1.	

Reaction 1.	

	  2.826e-02 moles of the following reaction have been added:

	                 Relative
	Reactant            moles

	KF                   1.00000

	                 Relative
	Element             moles
	F                    1.00000
	K                    1.00000

-----------------------------Solution composition------------------------------

	Elements           Molality       Moles

	F                 2.826e-02   2.826e-02
	K                 2.826e-02   2.826e-02

----------------------------Description of solution----------------------------

                                       pH  =   7.765      Charge balance
                                       pe  =  -0.935      Adjusted to redox equilibrium
      Specific Conductance (µS/cm,  25°C)  = 3262
                          Density (g/cm³)  =   0.99846
                               Volume (L)  =   1.00318
                        Viscosity (mPa s)  =   0.89539
                        Activity of water  =   0.999
                 Ionic strength (mol/kgw)  =   2.812e-02
                       Mass of water (kg)  =   1.000e+00
                 Total alkalinity (eq/kg)  =  -7.181e-17
                         Temperature (°C)  =  25.00
                  Electrical balance (eq)  =  -1.004e-13
 Percent error, 100*(Cat-|An|)/(Cat+|An|)  =  -0.00
                               Iterations  =   8
                                  Total H  = 1.110124e+02
                                  Total O  = 5.550622e+01

----------------------------Distribution of species----------------------------

                                               Log       Log       Log    mole V
   Species          Molality    Activity  Molality  Activity     Gamma   cm³/mol

   OH-             6.950e-07   5.892e-07    -6.158    -6.230    -0.072     -3.95
   H+              1.958e-08   1.716e-08    -7.708    -7.765    -0.057      0.00
   H2O             5.551e+01   9.990e-01     1.744    -0.000     0.000     18.07
F             2.826e-02
   F-              2.812e-02   2.384e-02    -1.551    -1.623    -0.072     -1.44
   KF              1.414e-04   1.413e-04    -3.850    -3.850    -0.000     -0.32
   HF              6.096e-07   6.136e-07    -6.215    -6.212     0.003     12.50
   HF2-            6.578e-08   5.612e-08    -7.182    -7.251    -0.069     22.19
H(0)          3.074e-17
   H2              1.537e-17   1.548e-17   -16.813   -16.810     0.003     14.99
K             2.826e-02
   K+              2.812e-02   2.386e-02    -1.551    -1.622    -0.071      9.12
   KF              1.414e-04   1.413e-04    -3.850    -3.850    -0.000     -0.32
O(0)          0.000e+00
   O2              0.000e+00   0.000e+00   -58.745   -58.743     0.003     30.40

------------------------------Saturation indices-------------------------------

  Phase               SI** log IAP   log K(298 K,   1 atm)

  H2(g)           -13.71    -16.81   -3.10  H2
  H2O(g)           -1.50     -0.00    1.50  H2O
  O2(g)           -55.85    -58.74   -2.89  O2

**For a gas, SI = log10(fugacity). Fugacity = pressure * phi / 1 atm.
  For ideal gases, phi = 1.

Reaction step 4.

Using solution 1.	
Using temperature 1.	
Using reaction 1.	

Reaction 1.	

	  4.015e-02 moles of the following reaction have been added:

	                 Relative
	Reactant            moles

	KF                   1.00000

	                 Relative
	Element             moles
	F                    1.00000
	K                    1.00000

-----------------------------Solution composition------------------------------

	Elements           Molality       Moles

	F                 4.015e-02   4.015e-02
	K                 4.015e-02   4.015e-02

----------------------------Description of solution----------------------------

                                       pH  =   7.837      Charge balance
                                       pe  =  -0.973      Adjusted to redox equilibrium
      Specific Conductance (µS/cm,  25°C)  = 4562
                          Density (g/cm³)  =   0.99906
                               Volume (L)  =   1.00327
                        Viscosity (mPa s)  =   0.89717
                        Activity of water  =   0.999
                 Ionic strength (mol/kgw)  =   3.988e-02
                       Mass of water (kg)  =   1.000e+00
                 Total alkalinity (eq/kg)  =  -1.012e-14
                         Temperature (°C)  =  25.00
                  Electrical balance (eq)  =  -3.015e-12
 Percent error, 100*(Cat-|An|)/(Cat+|An|)  =  -0.00
                               Iterations  =   8
                                  Total H  = 1.110124e+02
                                  Total O  = 5.550622e+01

----------------------------Distribution of species----------------------------

                                               Log       Log       Log    mole V
   Species          Molality    Activity  Molality  Activity     Gamma   cm³/mol

   OH-             8.395e-07   6.938e-07    -6.076    -6.159    -0.083     -3.91
   H+              1.688e-08   1.457e-08    -7.773    -7.837    -0.064      0.00
   H2O             5.551e+01   9.986e-01     1.744    -0.001     0.000     18.07
F             4.015e-02
   F-              3.988e-02   3.295e-02    -1.399    -1.482    -0.083     -1.39
   KF              2.704e-04   2.702e-04    -3.568    -3.568    -0.000     -0.32
   HF              7.135e-07   7.201e-07    -6.147    -6.143     0.004     12.50
   HF2-            1.092e-07   9.105e-08    -6.962    -7.041    -0.079     22.22
H(0)          2.630e-17
   H2              1.315e-17   1.328e-17   -16.881   -16.877     0.004     14.99
K             4.015e-02
   K+              3.988e-02   3.300e-02    -1.399    -1.481    -0.082      9.15
   KF              2.704e-04   2.702e-04    -3.568    -3.568    -0.000     -0.32
O(0)          0.000e+00
   O2              0.000e+00   0.000e+00   -58.614   -58.610     0.004     30.40

------------------------------Saturation indices-------------------------------

  Phase               SI** log IAP   log K(298 K,   1 atm)

  H2(g)           -13.78    -16.88   -3.10  H2
  H2O(g)           -1.50     -0.00    1.50  H2O
  O2(g)           -55.72    -58.61   -2.89  O2

**For a gas, SI = log10(fugacity). Fugacity = pressure * phi / 1 atm.
  For ideal gases, phi = 1.

Reaction step 5.

Using solution 1.	
Using temperature 1.	
Using reaction 1.	

Reaction 1.	

	  4.954e-02 moles of the following reaction have been added:

	                 Relative
	Reactant            moles

	KF                   1.00000

	                 Relative
	Element             moles
	F                    1.00000
	K                    1.00000

-----------------------------Solution composition------------------------------

	Elements           Molality       Moles

	F                 4.954e-02   4.954e-02
	K                 4.954e-02   4.954e-02

----------------------------Description of solution----------------------------

                                       pH  =   7.880      Charge balance
                                       pe  =  -1.042      Adjusted to redox equilibrium
      Specific Conductance (µS/cm,  25°C)  = 5571
                          Density (g/cm³)  =   0.99953
                               Volume (L)  =   1.00335
                        Viscosity (mPa s)  =   0.89851
                        Activity of water  =   0.998
                 Ionic strength (mol/kgw)  =   4.914e-02
                       Mass of water (kg)  =   1.000e+00
                 Total alkalinity (eq/kg)  =  -1.173e-13
                         Temperature (°C)  =  25.00
                  Electrical balance (eq)  =  -1.711e-11
 Percent error, 100*(Cat-|An|)/(Cat+|An|)  =  -0.00
                               Iterations  =   8
                                  Total H  = 1.110124e+02
                                  Total O  = 5.550622e+01

----------------------------Distribution of species----------------------------

                                               Log       Log       Log    mole V
   Species          Molality    Activity  Molality  Activity     Gamma   cm³/mol

   OH-             9.432e-07   7.665e-07    -6.025    -6.115    -0.090     -3.88
   H+              1.543e-08   1.318e-08    -7.812    -7.880    -0.068      0.00
   H2O             5.551e+01   9.983e-01     1.744    -0.001     0.000     18.07
F             4.954e-02
   F-              4.914e-02   3.993e-02    -1.309    -1.399    -0.090     -1.36
   KF              3.972e-04   3.970e-04    -3.401    -3.401    -0.000     -0.32
   HF              7.806e-07   7.895e-07    -6.108    -6.103     0.005     12.50
   HF2-            1.471e-07   1.210e-07    -6.832    -6.917    -0.085     22.24
H(0)          2.948e-17
   H2              1.474e-17   1.492e-17   -16.831   -16.826     0.005     14.99
K             4.954e-02
   K+              4.914e-02   4.000e-02    -1.309    -1.398    -0.089      9.17
   KF              3.972e-04   3.970e-04    -3.401    -3.401    -0.000     -0.32
O(0)          0.000e+00
   O2              0.000e+00   0.000e+00   -58.716   -58.711     0.005     30.40

------------------------------Saturation indices-------------------------------

  Phase               SI** log IAP   log K(298 K,   1 atm)

  H2(g)           -13.73    -16.83   -3.10  H2
  H2O(g)           -1.50     -0.00    1.50  H2O
  O2(g)           -55.82    -58.71   -2.89  O2

**For a gas, SI = log10(fugacity). Fugacity = pressure * phi / 1 atm.
  For ideal gases, phi = 1.

Reaction step 6.

Using solution 1.	
Using temperature 1.	
Using reaction 1.	

Reaction 1.	

	  5.993e-02 moles of the following reaction have been added:

	                 Relative
	Reactant            moles

	KF                   1.00000

	                 Relative
	Element             moles
	F                    1.00000
	K                    1.00000

-----------------------------Solution composition------------------------------

	Elements           Molality       Moles

	F                 5.993e-02   5.993e-02
	K                 5.993e-02   5.993e-02

----------------------------Description of solution----------------------------

                                       pH  =   7.920      Charge balance
                                       pe  =  -1.065      Adjusted to redox equilibrium
      Specific Conductance (µS/cm,  25°C)  = 6672
                          Density (g/cm³)  =   1.00005
                               Volume (L)  =   1.00343
                        Viscosity (mPa s)  =   0.89993
                        Activity of water  =   0.998
                 Ionic strength (mol/kgw)  =   5.937e-02
                       Mass of water (kg)  =   1.000e+00
                 Total alkalinity (eq/kg)  =  -1.009e-12
                         Temperature (°C)  =  25.00
                  Electrical balance (eq)  =  -7.723e-11
 Percent error, 100*(Cat-|An|)/(Cat+|An|)  =  -0.00
                               Iterations  =   8
                                  Total H  = 1.110124e+02
                                  Total O  = 5.550622e+01

----------------------------Distribution of species----------------------------

                                               Log       Log       Log    mole V
   Species          Molality    Activity  Molality  Activity     Gamma   cm³/mol

   OH-             1.051e-06   8.402e-07    -5.979    -6.076    -0.097     -3.84
   H+              1.420e-08   1.202e-08    -7.848    -7.920    -0.072      0.00
   H2O             5.551e+01   9.980e-01     1.744    -0.001     0.000     18.07
F             5.993e-02
   F-              5.937e-02   4.748e-02    -1.226    -1.324    -0.097     -1.33
   KF              5.617e-04   5.612e-04    -3.250    -3.251    -0.000     -0.32
   HF              8.443e-07   8.559e-07    -6.073    -6.068     0.006     12.50
   HF2-            1.922e-07   1.559e-07    -6.716    -6.807    -0.091     22.26
H(0)          2.722e-17
   H2              1.361e-17   1.380e-17   -16.866   -16.860     0.006     14.99
K             5.993e-02
   K+              5.937e-02   4.757e-02    -1.226    -1.323    -0.096      9.18
   KF              5.617e-04   5.612e-04    -3.250    -3.251    -0.000     -0.32
O(0)          0.000e+00
   O2              0.000e+00   0.000e+00   -58.650   -58.644     0.006     30.40

------------------------------Saturation indices-------------------------------

  Phase               SI** log IAP   log K(298 K,   1 atm)

  H2(g)           -13.76    -16.86   -3.10  H2
  H2O(g)           -1.50     -0.00    1.50  H2O
  O2(g)           -55.75    -58.64   -2.89  O2

**For a gas, SI = log10(fugacity). Fugacity = pressure * phi / 1 atm.
  For ideal gases, phi = 1.

Reaction step 7.

Using solution 1.	
Using temperature 1.	
Using reaction 1.	

Reaction 1.	

	  7.977e-02 moles of the following reaction have been added:

	                 Relative
	Reactant            moles

	KF                   1.00000

	                 Relative
	Element             moles
	F                    1.00000
	K                    1.00000

-----------------------------Solution composition------------------------------

	Elements           Molality       Moles

	F                 7.977e-02   7.977e-02
	K                 7.977e-02   7.977e-02

----------------------------Description of solution----------------------------

                                       pH  =   7.982      Charge balance
                                       pe  =  -1.139      Adjusted to redox equilibrium
      Specific Conductance (µS/cm,  25°C)  = 8740
                          Density (g/cm³)  =   1.00104
                               Volume (L)  =   1.00359
                        Viscosity (mPa s)  =   0.90254
                        Activity of water  =   0.997
                 Ionic strength (mol/kgw)  =   7.883e-02
                       Mass of water (kg)  =   1.000e+00
                 Total alkalinity (eq/kg)  =  -1.672e-11
                         Temperature (°C)  =  25.00
                  Electrical balance (eq)  =  -5.534e-10
 Percent error, 100*(Cat-|An|)/(Cat+|An|)  =  -0.00
                               Iterations  =   8
                                  Total H  = 1.110124e+02
                                  Total O  = 5.550622e+01

----------------------------Distribution of species----------------------------

                                               Log       Log       Log    mole V
   Species          Molality    Activity  Molality  Activity     Gamma   cm³/mol

   OH-             1.241e-06   9.676e-07    -5.906    -6.014    -0.108     -3.79
   H+              1.249e-08   1.043e-08    -7.903    -7.982    -0.078      0.00
   H2O             5.551e+01   9.973e-01     1.744    -0.001     0.000     18.07
F             7.977e-02
   F-              7.883e-02   6.144e-02    -1.103    -1.212    -0.108     -1.27
   KF              9.415e-04   9.404e-04    -3.026    -3.027    -0.000     -0.32
   HF              9.439e-07   9.612e-07    -6.025    -6.017     0.008     12.50
   HF2-            2.851e-07   2.266e-07    -6.545    -6.645    -0.100     22.30
H(0)          2.863e-17
   H2              1.431e-17   1.459e-17   -16.844   -16.836     0.008     14.99
K             7.977e-02
   K+              7.883e-02   6.160e-02    -1.103    -1.210    -0.107      9.21
   KF              9.415e-04   9.404e-04    -3.026    -3.027    -0.000     -0.32
O(0)          0.000e+00
   O2              0.000e+00   0.000e+00   -58.701   -58.693     0.008     30.40

------------------------------Saturation indices-------------------------------

  Phase               SI** log IAP   log K(298 K,   1 atm)

  H2(g)           -13.74    -16.84   -3.10  H2
  H2O(g)           -1.50     -0.00    1.50  H2O
  O2(g)           -55.80    -58.69   -2.89  O2

**For a gas, SI = log10(fugacity). Fugacity = pressure * phi / 1 atm.
  For ideal gases, phi = 1.

Reaction step 8.

Using solution 1.	
Using temperature 1.	
Using reaction 1.	

Reaction 1.	

	  1.001e-01 moles of the following reaction have been added:

	                 Relative
	Reactant            moles

	KF                   1.00000

	                 Relative
	Element             moles
	F                    1.00000
	K                    1.00000

-----------------------------Solution composition------------------------------

	Elements           Molality       Moles

	F                 1.001e-01   1.001e-01
	K                 1.001e-01   1.001e-01

----------------------------Description of solution----------------------------

                                       pH  =   8.032      Charge balance
                                       pe  =  -1.245      Adjusted to redox equilibrium
      Specific Conductance (µS/cm,  25°C)  = 10815
                          Density (g/cm³)  =   1.00205
                               Volume (L)  =   1.00376
                        Viscosity (mPa s)  =   0.90508
                        Activity of water  =   0.997
                 Ionic strength (mol/kgw)  =   9.864e-02
                       Mass of water (kg)  =   1.000e+00
                 Total alkalinity (eq/kg)  =   3.842e-17
                         Temperature (°C)  =  25.00
                  Electrical balance (eq)  =  -2.105e-15
 Percent error, 100*(Cat-|An|)/(Cat+|An|)  =  -0.00
                               Iterations  =   9
                                  Total H  = 1.110124e+02
                                  Total O  = 5.550622e+01

----------------------------Distribution of species----------------------------

                                               Log       Log       Log    mole V
   Species          Molality    Activity  Molality  Activity     Gamma   cm³/mol

   OH-             1.423e-06   1.085e-06    -5.847    -5.964    -0.118     -3.73
   H+              1.125e-08   9.294e-09    -7.949    -8.032    -0.083      0.00
   H2O             5.551e+01   9.966e-01     1.744    -0.001     0.000     18.07
F             1.001e-01
   F-              9.864e-02   7.522e-02    -1.006    -1.124    -0.118     -1.21
   KF              1.413e-03   1.411e-03    -2.850    -2.851    -0.001     -0.32
   HF              1.025e-06   1.048e-06    -5.989    -5.979     0.010     12.50
   HF2-            3.870e-07   3.026e-07    -6.412    -6.519    -0.107     22.33
H(0)          3.693e-17
   H2              1.846e-17   1.891e-17   -16.734   -16.723     0.010     14.99
K             1.001e-01
   K+              9.864e-02   7.548e-02    -1.006    -1.122    -0.116      9.24
   KF              1.413e-03   1.411e-03    -2.850    -2.851    -0.001     -0.32
O(0)          0.000e+00
   O2              0.000e+00   0.000e+00   -58.929   -58.919     0.010     30.40

------------------------------Saturation indices-------------------------------

  Phase               SI** log IAP   log K(298 K,   1 atm)

  H2(g)           -13.62    -16.72   -3.10  H2
  H2O(g)           -1.50     -0.00    1.50  H2O
  O2(g)           -56.03    -58.92   -2.89  O2

**For a gas, SI = log10(fugacity). Fugacity = pressure * phi / 1 atm.
  For ideal gases, phi = 1.

Reaction step 9.

Using solution 1.	
Using temperature 1.	
Using reaction 1.	

Reaction 1.	

	  1.002e-01 moles of the following reaction have been added:

	                 Relative
	Reactant            moles

	KF                   1.00000

	                 Relative
	Element             moles
	F                    1.00000
	K                    1.00000

-----------------------------Solution composition------------------------------

	Elements           Molality       Moles

	F                 1.002e-01   1.002e-01
	K                 1.002e-01   1.001e-01

----------------------------Description of solution----------------------------

                                       pH  =   8.032      Charge balance
                                       pe  =  -1.181      Adjusted to redox equilibrium
      Specific Conductance (µS/cm,  25°C)  = 10825
                          Density (g/cm³)  =   1.00205
                               Volume (L)  =   1.00376
                        Viscosity (mPa s)  =   0.90509
                        Activity of water  =   0.997
                 Ionic strength (mol/kgw)  =   9.873e-02
                       Mass of water (kg)  =   1.000e+00
                 Total alkalinity (eq/kg)  =   2.847e-17
                         Temperature (°C)  =  25.00
                  Electrical balance (eq)  =  -1.905e-15
 Percent error, 100*(Cat-|An|)/(Cat+|An|)  =  -0.00
                               Iterations  =   9
                                  Total H  = 1.110124e+02
                                  Total O  = 5.550622e+01

----------------------------Distribution of species----------------------------

                                               Log       Log       Log    mole V
   Species          Molality    Activity  Molality  Activity     Gamma   cm³/mol

   OH-             1.424e-06   1.086e-06    -5.846    -5.964    -0.118     -3.73
   H+              1.125e-08   9.289e-09    -7.949    -8.032    -0.083      0.00
   H2O             5.551e+01   9.966e-01     1.744    -0.001     0.000     18.07
F             1.002e-01
   F-              9.873e-02   7.529e-02    -1.006    -1.123    -0.118     -1.21
   KF              1.415e-03   1.413e-03    -2.849    -2.850    -0.001     -0.32
   HF              1.025e-06   1.049e-06    -5.989    -5.979     0.010     12.50
   HF2-            3.875e-07   3.030e-07    -6.412    -6.519    -0.107     22.33
H(0)          2.748e-17
   H2              1.374e-17   1.407e-17   -16.862   -16.852     0.010     14.99
K             1.002e-01
   K+              9.873e-02   7.555e-02    -1.006    -1.122    -0.116      9.24
   KF              1.415e-03   1.413e-03    -2.849    -2.850    -0.001     -0.32
O(0)          0.000e+00
   O2              0.000e+00   0.000e+00   -58.672   -58.662     0.010     30.40

------------------------------Saturation indices-------------------------------

  Phase               SI** log IAP   log K(298 K,   1 atm)

  H2(g)           -13.75    -16.85   -3.10  H2
  H2O(g)           -1.50     -0.00    1.50  H2O
  O2(g)           -55.77    -58.66   -2.89  O2

**For a gas, SI = log10(fugacity). Fugacity = pressure * phi / 1 atm.
  For ideal gases, phi = 1.

Reaction step 10.

Using solution 1.	
Using temperature 1.	
Using reaction 1.	

Reaction 1.	

	  1.500e-01 moles of the following reaction have been added:

	                 Relative
	Reactant            moles

	KF                   1.00000

	                 Relative
	Element             moles
	F                    1.00000
	K                    1.00000

-----------------------------Solution composition------------------------------

	Elements           Molality       Moles

	F                 1.500e-01   1.500e-01
	K                 1.500e-01   1.500e-01

----------------------------Description of solution----------------------------

                                       pH  =   8.125      Charge balance
                                       pe  =  -1.464      Adjusted to redox equilibrium
      Specific Conductance (µS/cm,  25°C)  = 15798
                          Density (g/cm³)  =   1.00452
                               Volume (L)  =   1.00417
                        Viscosity (mPa s)  =   0.91102
                        Activity of water  =   0.995
                 Ionic strength (mol/kgw)  =   1.471e-01
                       Mass of water (kg)  =   1.000e+00
                 Total alkalinity (eq/kg)  =  -6.297e-16
                         Temperature (°C)  =  25.00
                  Electrical balance (eq)  =  -7.015e-13
 Percent error, 100*(Cat-|An|)/(Cat+|An|)  =  -0.00
                               Iterations  =   9
                                  Total H  = 1.110124e+02
                                  Total O  = 5.550622e+01

----------------------------Distribution of species----------------------------

                                               Log       Log       Log    mole V
   Species          Molality    Activity  Molality  Activity     Gamma   cm³/mol

   OH-             1.836e-06   1.343e-06    -5.736    -5.872    -0.136     -3.62
   H+              9.259e-09   7.497e-09    -8.033    -8.125    -0.092      0.00
   H2O             5.551e+01   9.949e-01     1.744    -0.002     0.000     18.07
F             1.500e-01
   F-              1.471e-01   1.076e-01    -0.832    -0.968    -0.136     -1.07
   KF              2.900e-03   2.893e-03    -2.538    -2.539    -0.001     -0.32
   HF              1.170e-06   1.210e-06    -5.932    -5.917     0.015     12.50
   HF2-            6.572e-07   4.998e-07    -6.182    -6.301    -0.119     22.39
H(0)          6.494e-17
   H2              3.247e-17   3.365e-17   -16.489   -16.473     0.015     14.99
K             1.500e-01
   K+              1.471e-01   1.082e-01    -0.832    -0.966    -0.134      9.29
   KF              2.900e-03   2.893e-03    -2.538    -2.539    -0.001     -0.32
O(0)          0.000e+00
   O2              0.000e+00   0.000e+00   -59.436   -59.421     0.015     30.40

------------------------------Saturation indices-------------------------------

  Phase               SI** log IAP   log K(298 K,   1 atm)

  H2(g)           -13.37    -16.47   -3.10  H2
  H2O(g)           -1.51     -0.00    1.50  H2O
  O2(g)           -56.53    -59.42   -2.89  O2

**For a gas, SI = log10(fugacity). Fugacity = pressure * phi / 1 atm.
  For ideal gases, phi = 1.

Reaction step 11.

Using solution 1.	
Using temperature 1.	
Using reaction 1.	

Reaction 1.	

	  1.785e-01 moles of the following reaction have been added:

	                 Relative
	Reactant            moles

	KF                   1.00000

	                 Relative
	Element             moles
	F                    1.00000
	K                    1.00000

-----------------------------Solution composition------------------------------

	Elements           Molality       Moles

	F                 1.785e-01   1.785e-01
	K                 1.785e-01   1.785e-01

----------------------------Description of solution----------------------------

                                       pH  =   8.167      Charge balance
                                       pe  =  -1.400      Adjusted to redox equilibrium
      Specific Conductance (µS/cm,  25°C)  = 18566
                          Density (g/cm³)  =   1.00593
                               Volume (L)  =   1.00442
                        Viscosity (mPa s)  =   0.91425
                        Activity of water  =   0.994
                 Ionic strength (mol/kgw)  =   1.745e-01
                       Mass of water (kg)  =   1.000e+00
                 Total alkalinity (eq/kg)  =  -1.636e-14
                         Temperature (°C)  =  25.00
                  Electrical balance (eq)  =  -7.035e-12
 Percent error, 100*(Cat-|An|)/(Cat+|An|)  =  -0.00
                               Iterations  =   9
                                  Total H  = 1.110124e+02
                                  Total O  = 5.550622e+01

----------------------------Distribution of species----------------------------

                                               Log       Log       Log    mole V
   Species          Molality    Activity  Molality  Activity     Gamma   cm³/mol

   OH-             2.057e-06   1.477e-06    -5.687    -5.831    -0.144     -3.55
   H+              8.486e-09   6.814e-09    -8.071    -8.167    -0.095      0.00
   H2O             5.551e+01   9.940e-01     1.744    -0.003     0.000     18.07
F             1.785e-01
   F-              1.745e-01   1.253e-01    -0.758    -0.902    -0.144     -1.00
   KF              3.935e-03   3.925e-03    -2.405    -2.406    -0.001     -0.32
   HF              1.230e-06   1.280e-06    -5.910    -5.893     0.017     12.50
   HF2-            8.183e-07   6.156e-07    -6.087    -6.211    -0.124     22.43
H(0)          3.983e-17
   H2              1.992e-17   2.077e-17   -16.701   -16.682     0.018     14.99
K             1.785e-01
   K+              1.745e-01   1.261e-01    -0.758    -0.899    -0.141      9.32
   KF              3.935e-03   3.925e-03    -2.405    -2.406    -0.001     -0.32
O(0)          0.000e+00
   O2              0.000e+00   0.000e+00   -59.020   -59.003     0.017     30.40

------------------------------Saturation indices-------------------------------

  Phase               SI** log IAP   log K(298 K,   1 atm)

  H2(g)           -13.58    -16.68   -3.10  H2
  H2O(g)           -1.51     -0.00    1.50  H2O
  O2(g)           -56.11    -59.00   -2.89  O2

**For a gas, SI = log10(fugacity). Fugacity = pressure * phi / 1 atm.
  For ideal gases, phi = 1.

Reaction step 12.

Using solution 1.	
Using temperature 1.	
Using reaction 1.	

Reaction 1.	

	  1.996e-01 moles of the following reaction have been added:

	                 Relative
	Reactant            moles

	KF                   1.00000

	                 Relative
	Element             moles
	F                    1.00000
	K                    1.00000

-----------------------------Solution composition------------------------------

	Elements           Molality       Moles

	F                 1.996e-01   1.996e-01
	K                 1.996e-01   1.996e-01

----------------------------Description of solution----------------------------

                                       pH  =   8.194      Charge balance
                                       pe  =  -1.397      Adjusted to redox equilibrium
      Specific Conductance (µS/cm,  25°C)  = 20597
                          Density (g/cm³)  =   1.00697
                               Volume (L)  =   1.00460
                        Viscosity (mPa s)  =   0.91660
                        Activity of water  =   0.993
                 Ionic strength (mol/kgw)  =   1.948e-01
                       Mass of water (kg)  =   1.000e+00
                 Total alkalinity (eq/kg)  =  -1.162e-13
                         Temperature (°C)  =  25.00
                  Electrical balance (eq)  =  -2.804e-11
 Percent error, 100*(Cat-|An|)/(Cat+|An|)  =  -0.00
                               Iterations  =   9
                                  Total H  = 1.110124e+02
                                  Total O  = 5.550622e+01

----------------------------Distribution of species----------------------------

                                               Log       Log       Log    mole V
   Species          Molality    Activity  Molality  Activity     Gamma   cm³/mol

   OH-             2.216e-06   1.571e-06    -5.654    -5.804    -0.149     -3.51
   H+              8.013e-09   6.400e-09    -8.096    -8.194    -0.098      0.00
   H2O             5.551e+01   9.933e-01     1.744    -0.003     0.000     18.07
F             1.996e-01
   F-              1.948e-01   1.381e-01    -0.710    -0.860    -0.149     -0.94
   KF              4.787e-03   4.774e-03    -2.320    -2.321    -0.001     -0.32
   HF              1.268e-06   1.326e-06    -5.897    -5.878     0.019     12.50
   HF2-            9.401e-07   7.027e-07    -6.027    -6.153    -0.126     22.45
H(0)          3.447e-17
   H2              1.723e-17   1.807e-17   -16.764   -16.743     0.020     14.99
K             1.996e-01
   K+              1.948e-01   1.391e-01    -0.710    -0.857    -0.146      9.34
   KF              4.787e-03   4.774e-03    -2.320    -2.321    -0.001     -0.32
O(0)          0.000e+00
   O2              0.000e+00   0.000e+00   -58.902   -58.882     0.019     30.40

------------------------------Saturation indices-------------------------------

  Phase               SI** log IAP   log K(298 K,   1 atm)

  H2(g)           -13.64    -16.74   -3.10  H2
  H2O(g)           -1.51     -0.00    1.50  H2O
  O2(g)           -55.99    -58.88   -2.89  O2

**For a gas, SI = log10(fugacity). Fugacity = pressure * phi / 1 atm.
  For ideal gases, phi = 1.

Reaction step 13.

Using solution 1.	
Using temperature 1.	
Using reaction 1.	

Reaction 1.	

	  2.199e-01 moles of the following reaction have been added:

	                 Relative
	Reactant            moles

	KF                   1.00000

	                 Relative
	Element             moles
	F                    1.00000
	K                    1.00000

-----------------------------Solution composition------------------------------

	Elements           Molality       Moles

	F                 2.199e-01   2.199e-01
	K                 2.199e-01   2.199e-01

----------------------------Description of solution----------------------------

                                       pH  =   8.218      Charge balance
                                       pe  =  -1.392      Adjusted to redox equilibrium
      Specific Conductance (µS/cm,  25°C)  = 22527
                          Density (g/cm³)  =   1.00796
                               Volume (L)  =   1.00478
                        Viscosity (mPa s)  =   0.91884
                        Activity of water  =   0.993
                 Ionic strength (mol/kgw)  =   2.142e-01
                       Mass of water (kg)  =   1.000e+00
                 Total alkalinity (eq/kg)  =  -5.990e-11
                         Temperature (°C)  =  25.00
                  Electrical balance (eq)  =  -1.909e-09
 Percent error, 100*(Cat-|An|)/(Cat+|An|)  =  -0.00
                               Iterations  =   9
                                  Total H  = 1.110124e+02
                                  Total O  = 5.550622e+01

----------------------------Distribution of species----------------------------

                                               Log       Log       Log    mole V
   Species          Molality    Activity  Molality  Activity     Gamma   cm³/mol

   OH-             2.365e-06   1.659e-06    -5.626    -5.780    -0.154     -3.47
   H+              7.620e-09   6.057e-09    -8.118    -8.218    -0.100      0.00
   H2O             5.551e+01   9.926e-01     1.744    -0.003     0.000     18.07
F             2.199e-01
   F-              2.142e-01   1.503e-01    -0.669    -0.823    -0.154     -0.89
   KF              5.669e-03   5.651e-03    -2.247    -2.248    -0.001     -0.32
   HF              1.299e-06   1.365e-06    -5.886    -5.865     0.021     12.50
   HF2-            1.058e-06   7.869e-07    -5.975    -6.104    -0.129     22.47
H(0)          3.002e-17
   H2              1.501e-17   1.581e-17   -16.824   -16.801     0.022     14.99
K             2.199e-01
   K+              2.142e-01   1.514e-01    -0.669    -0.820    -0.151      9.36
   KF              5.669e-03   5.651e-03    -2.247    -2.248    -0.001     -0.32
O(0)          0.000e+00
   O2              0.000e+00   0.000e+00   -58.788   -58.767     0.021     30.40

------------------------------Saturation indices-------------------------------

  Phase               SI** log IAP   log K(298 K,   1 atm)

  H2(g)           -13.70    -16.80   -3.10  H2
  H2O(g)           -1.51     -0.00    1.50  H2O
  O2(g)           -55.87    -58.77   -2.89  O2

**For a gas, SI = log10(fugacity). Fugacity = pressure * phi / 1 atm.
  For ideal gases, phi = 1.

Reaction step 14.

Using solution 1.	
Using temperature 1.	
Using reaction 1.	

Reaction 1.	

	  3.195e-01 moles of the following reaction have been added:

	                 Relative
	Reactant            moles

	KF                   1.00000

	                 Relative
	Element             moles
	F                    1.00000
	K                    1.00000

-----------------------------Solution composition------------------------------

	Elements           Molality       Moles

	F                 3.195e-01   3.195e-01
	K                 3.195e-01   3.195e-01

----------------------------Description of solution----------------------------

                                       pH  =   8.312      Charge balance
                                       pe  =  -1.565      Adjusted to redox equilibrium
      Specific Conductance (µS/cm,  25°C)  = 31750
                          Density (g/cm³)  =   1.01282
                               Volume (L)  =   1.00567
                        Viscosity (mPa s)  =   0.92952
                        Activity of water  =   0.989
                 Ionic strength (mol/kgw)  =   3.086e-01
                       Mass of water (kg)  =   1.000e+00
                 Total alkalinity (eq/kg)  =   4.931e-17
                         Temperature (°C)  =  25.00
                  Electrical balance (eq)  =  -2.673e-14
 Percent error, 100*(Cat-|An|)/(Cat+|An|)  =  -0.00
                               Iterations  =  10
                                  Total H  = 1.110124e+02
                                  Total O  = 5.550622e+01

----------------------------Distribution of species----------------------------

                                               Log       Log       Log    mole V
   Species          Molality    Activity  Molality  Activity     Gamma   cm³/mol

   OH-             3.060e-06   2.055e-06    -5.514    -5.687    -0.173     -3.28
   H+              6.237e-09   4.872e-09    -8.205    -8.312    -0.107      0.00
   H2O             5.551e+01   9.893e-01     1.744    -0.005     0.000     18.07
F             3.195e-01
   F-              3.086e-01   2.073e-01    -0.511    -0.683    -0.173     -0.65
   KF              1.084e-02   1.079e-02    -1.965    -1.967    -0.002     -0.32
   HF2-            1.643e-06   1.204e-06    -5.784    -5.919    -0.135     22.56
   HF              1.411e-06   1.515e-06    -5.851    -5.820     0.031     12.50
H(0)          4.211e-17
   H2              2.105e-17   2.269e-17   -16.677   -16.644     0.032     14.99
K             3.195e-01
   K+              3.086e-01   2.095e-01    -0.511    -0.679    -0.168      9.43
   KF              1.084e-02   1.079e-02    -1.965    -1.967    -0.002     -0.32
O(0)          0.000e+00
   O2              0.000e+00   0.000e+00   -59.114   -59.083     0.031     30.40

------------------------------Saturation indices-------------------------------

  Phase               SI** log IAP   log K(298 K,   1 atm)

  H2(g)           -13.54    -16.64   -3.10  H2
  H2O(g)           -1.51     -0.00    1.50  H2O
  O2(g)           -56.19    -59.08   -2.89  O2

**For a gas, SI = log10(fugacity). Fugacity = pressure * phi / 1 atm.
  For ideal gases, phi = 1.

Reaction step 15.

Using solution 1.	
Using temperature 1.	
Using reaction 1.	

Reaction 1.	

	  3.764e-01 moles of the following reaction have been added:

	                 Relative
	Reactant            moles

	KF                   1.00000

	                 Relative
	Element             moles
	F                    1.00000
	K                    1.00000

-----------------------------Solution composition------------------------------

	Elements           Molality       Moles

	F                 3.764e-01   3.764e-01
	K                 3.764e-01   3.764e-01

----------------------------Description of solution----------------------------

                                       pH  =   8.355      Charge balance
                                       pe  =  -1.701      Adjusted to redox equilibrium
      Specific Conductance (µS/cm,  25°C)  = 36857
                          Density (g/cm³)  =   1.01557
                               Volume (L)  =   1.00620
                        Viscosity (mPa s)  =   0.93551
                        Activity of water  =   0.987
                 Ionic strength (mol/kgw)  =   3.620e-01
                       Mass of water (kg)  =   1.000e+00
                 Total alkalinity (eq/kg)  =  -1.761e-11
                         Temperature (°C)  =  25.00
                  Electrical balance (eq)  =  -1.045e-09
 Percent error, 100*(Cat-|An|)/(Cat+|An|)  =  -0.00
                               Iterations  =  22
                                  Total H  = 1.110124e+02
                                  Total O  = 5.550622e+01

----------------------------Distribution of species----------------------------

                                               Log       Log       Log    mole V
   Species          Molality    Activity  Molality  Activity     Gamma   cm³/mol

   OH-             3.436e-06   2.263e-06    -5.464    -5.645    -0.181     -3.18
   H+              5.696e-09   4.417e-09    -8.244    -8.355    -0.110      0.00
   H2O             5.551e+01   9.874e-01     1.744    -0.005     0.000     18.07
F             3.764e-01
   F-              3.620e-01   2.384e-01    -0.441    -0.623    -0.181     -0.51
   KF              1.438e-02   1.430e-02    -1.842    -1.845    -0.002     -0.32
   HF2-            1.977e-06   1.445e-06    -5.704    -5.840    -0.136     22.60
   HF              1.453e-06   1.579e-06    -5.838    -5.802     0.036     12.50
H(0)          6.397e-17
   H2              3.198e-17   3.491e-17   -16.495   -16.457     0.038     14.99
K             3.764e-01
   K+              3.620e-01   2.414e-01    -0.441    -0.617    -0.176      9.47
   KF              1.438e-02   1.430e-02    -1.842    -1.845    -0.002     -0.32
O(0)          0.000e+00
   O2              0.000e+00   0.000e+00   -59.496   -59.459     0.036     30.40

------------------------------Saturation indices-------------------------------

  Phase               SI** log IAP   log K(298 K,   1 atm)

  H2(g)           -13.36    -16.46   -3.10  H2
  H2O(g)           -1.51     -0.01    1.50  H2O
  O2(g)           -56.57    -59.46   -2.89  O2

**For a gas, SI = log10(fugacity). Fugacity = pressure * phi / 1 atm.
  For ideal gases, phi = 1.

Reaction step 16.

Using solution 1.	
Using temperature 1.	
Using reaction 1.	

Reaction 1.	

	  3.995e-01 moles of the following reaction have been added:

	                 Relative
	Reactant            moles

	KF                   1.00000

	                 Relative
	Element             moles
	F                    1.00000
	K                    1.00000

-----------------------------Solution composition------------------------------

	Elements           Molality       Moles

	F                 3.995e-01   3.995e-01
	K                 3.995e-01   3.994e-01

----------------------------Description of solution----------------------------

                                       pH  =   8.370      Charge balance
                                       pe  =  -1.299      Adjusted to redox equilibrium
      Specific Conductance (µS/cm,  25°C)  = 38897
                          Density (g/cm³)  =   1.01668
                               Volume (L)  =   1.00642
                        Viscosity (mPa s)  =   0.93794
                        Activity of water  =   0.987
                 Ionic strength (mol/kgw)  =   3.835e-01
                       Mass of water (kg)  =   1.000e+00
                 Total alkalinity (eq/kg)  =   1.098e-18
                         Temperature (°C)  =  25.00
                  Electrical balance (eq)  =  -2.645e-15
 Percent error, 100*(Cat-|An|)/(Cat+|An|)  =  -0.00
                               Iterations  =  10
                                  Total H  = 1.110124e+02
                                  Total O  = 5.550622e+01

----------------------------Distribution of species----------------------------

                                               Log       Log       Log    mole V
   Species          Molality    Activity  Molality  Activity     Gamma   cm³/mol

   OH-             3.584e-06   2.344e-06    -5.446    -5.630    -0.184     -3.14
   H+              5.510e-09   4.261e-09    -8.259    -8.370    -0.112      0.00
   H2O             5.551e+01   9.867e-01     1.744    -0.006     0.000     18.07
F             3.995e-01
   F-              3.835e-01   2.508e-01    -0.416    -0.601    -0.184     -0.46
   KF              1.592e-02   1.584e-02    -1.798    -1.800    -0.002     -0.32
   HF2-            2.111e-06   1.542e-06    -5.675    -5.812    -0.136     22.62
   HF              1.467e-06   1.603e-06    -5.833    -5.795     0.038     12.50
H(0)          9.306e-18
   H2              4.653e-18   5.105e-18   -17.332   -17.292     0.040     14.99
K             3.995e-01
   K+              3.835e-01   2.541e-01    -0.416    -0.595    -0.179      9.48
   KF              1.592e-02   1.584e-02    -1.798    -1.800    -0.002     -0.32
O(0)          0.000e+00
   O2              0.000e+00   0.000e+00   -57.829   -57.790     0.038     30.40

------------------------------Saturation indices-------------------------------

  Phase               SI** log IAP   log K(298 K,   1 atm)

  H2(g)           -14.19    -17.29   -3.10  H2
  H2O(g)           -1.51     -0.01    1.50  H2O
  O2(g)           -54.90    -57.79   -2.89  O2

**For a gas, SI = log10(fugacity). Fugacity = pressure * phi / 1 atm.
  For ideal gases, phi = 1.

Reaction step 17.

Using solution 1.	
Using temperature 1.	
Using reaction 1.	

Reaction 1.	

	  4.000e-01 moles of the following reaction have been added:

	                 Relative
	Reactant            moles

	KF                   1.00000

	                 Relative
	Element             moles
	F                    1.00000
	K                    1.00000

-----------------------------Solution composition------------------------------

	Elements           Molality       Moles

	F                 4.000e-01   4.000e-01
	K                 4.000e-01   4.000e-01

----------------------------Description of solution----------------------------

                                       pH  =   8.371      Charge balance
                                       pe  =  -1.837      Adjusted to redox equilibrium
      Specific Conductance (µS/cm,  25°C)  = 38948
                          Density (g/cm³)  =   1.01671
                               Volume (L)  =   1.00643
                        Viscosity (mPa s)  =   0.93800
                        Activity of water  =   0.987
                 Ionic strength (mol/kgw)  =   3.841e-01
                       Mass of water (kg)  =   1.000e+00
                 Total alkalinity (eq/kg)  =   6.100e-17
                         Temperature (°C)  =  25.00
                  Electrical balance (eq)  =  -2.295e-15
 Percent error, 100*(Cat-|An|)/(Cat+|An|)  =  -0.00
                               Iterations  =  13
                                  Total H  = 1.110124e+02
                                  Total O  = 5.550622e+01

----------------------------Distribution of species----------------------------

                                               Log       Log       Log    mole V
   Species          Molality    Activity  Molality  Activity     Gamma   cm³/mol

   OH-             3.588e-06   2.346e-06    -5.445    -5.630    -0.185     -3.13
   H+              5.505e-09   4.258e-09    -8.259    -8.371    -0.112      0.00
   H2O             5.551e+01   9.867e-01     1.744    -0.006     0.000     18.07
F             4.000e-01
   F-              3.841e-01   2.511e-01    -0.416    -0.600    -0.185     -0.46
   KF              1.596e-02   1.588e-02    -1.797    -1.799    -0.002     -0.32
   HF2-            2.115e-06   1.545e-06    -5.675    -5.811    -0.136     22.62
   HF              1.468e-06   1.603e-06    -5.833    -5.795     0.038     12.50
H(0)          1.106e-16
   H2              5.529e-17   6.066e-17   -16.257   -16.217     0.040     14.99
K             4.000e-01
   K+              3.841e-01   2.544e-01    -0.416    -0.594    -0.179      9.48
   KF              1.596e-02   1.588e-02    -1.797    -1.799    -0.002     -0.32
O(0)          0.000e+00
   O2              0.000e+00   0.000e+00   -59.978   -59.940     0.038     30.40

------------------------------Saturation indices-------------------------------

  Phase               SI** log IAP   log K(298 K,   1 atm)

  H2(g)           -13.12    -16.22   -3.10  H2
  H2O(g)           -1.51     -0.01    1.50  H2O
  O2(g)           -57.05    -59.94   -2.89  O2

**For a gas, SI = log10(fugacity). Fugacity = pressure * phi / 1 atm.
  For ideal gases, phi = 1.

Reaction step 18.

Using solution 1.	
Using temperature 1.	
Using reaction 1.	

Reaction 1.	

	  4.868e-01 moles of the following reaction have been added:

	                 Relative
	Reactant            moles

	KF                   1.00000

	                 Relative
	Element             moles
	F                    1.00000
	K                    1.00000

-----------------------------Solution composition------------------------------

	Elements           Molality       Moles

	F                 4.868e-01   4.868e-01
	K                 4.868e-01   4.868e-01

----------------------------Description of solution----------------------------

                                       pH  =   8.423      Charge balance
                                       pe  =  -1.151      Adjusted to redox equilibrium
      Specific Conductance (µS/cm,  25°C)  = 46462
                          Density (g/cm³)  =   1.02087
                               Volume (L)  =   1.00726
                        Viscosity (mPa s)  =   0.94710
                        Activity of water  =   0.984
                 Ionic strength (mol/kgw)  =   4.645e-01
                       Mass of water (kg)  =   1.000e+00
                 Total alkalinity (eq/kg)  =  -5.665e-16
                         Temperature (°C)  =  25.00
                  Electrical balance (eq)  =  -8.855e-13
 Percent error, 100*(Cat-|An|)/(Cat+|An|)  =  -0.00
                               Iterations  =  22
                                  Total H  = 1.110124e+02
                                  Total O  = 5.550622e+01

----------------------------Distribution of species----------------------------

                                               Log       Log       Log    mole V
   Species          Molality    Activity  Molality  Activity     Gamma   cm³/mol

   OH-             4.128e-06   2.635e-06    -5.384    -5.579    -0.195     -2.99
   H+              4.928e-09   3.779e-09    -8.307    -8.423    -0.115      0.00
   H2O             5.551e+01   9.838e-01     1.744    -0.007     0.000     18.07
F             4.868e-01
   F-              4.645e-01   2.965e-01    -0.333    -0.528    -0.195     -0.27
   KF              2.235e-02   2.220e-02    -1.651    -1.654    -0.003     -0.32
   HF2-            2.613e-06   1.912e-06    -5.583    -5.719    -0.136     22.67
   HF              1.510e-06   1.680e-06    -5.821    -5.775     0.046     12.50
H(0)          3.625e-18
   H2              1.813e-18   2.028e-18   -17.742   -17.693     0.049     14.99
K             4.868e-01
   K+              4.645e-01   3.013e-01    -0.333    -0.521    -0.188      9.54
   KF              2.235e-02   2.220e-02    -1.651    -1.654    -0.003     -0.32
O(0)          0.000e+00
   O2              0.000e+00   0.000e+00   -57.037   -56.991     0.046     30.40

------------------------------Saturation indices-------------------------------

  Phase               SI** log IAP   log K(298 K,   1 atm)

  H2(g)           -14.59    -17.69   -3.10  H2
  H2O(g)           -1.51     -0.01    1.50  H2O
  O2(g)           -54.10    -56.99   -2.89  O2

**For a gas, SI = log10(fugacity). Fugacity = pressure * phi / 1 atm.
  For ideal gases, phi = 1.

Reaction step 19.

Using solution 1.	
Using temperature 1.	
Using reaction 1.	

Reaction 1.	

	  4.992e-01 moles of the following reaction have been added:

	                 Relative
	Reactant            moles

	KF                   1.00000

	                 Relative
	Element             moles
	F                    1.00000
	K                    1.00000

-----------------------------Solution composition------------------------------

	Elements           Molality       Moles

	F                 4.992e-01   4.992e-01
	K                 4.992e-01   4.992e-01

----------------------------Description of solution----------------------------

                                       pH  =   8.429      Charge balance
                                       pe  =  -1.661      Adjusted to redox equilibrium
      Specific Conductance (µS/cm,  25°C)  = 47513
                          Density (g/cm³)  =   1.02146
                               Volume (L)  =   1.00739
                        Viscosity (mPa s)  =   0.94840
                        Activity of water  =   0.983
                 Ionic strength (mol/kgw)  =   4.759e-01
                       Mass of water (kg)  =   1.000e+00
                 Total alkalinity (eq/kg)  =  -9.497e-11
                         Temperature (°C)  =  25.00
                  Electrical balance (eq)  =  -3.578e-09
 Percent error, 100*(Cat-|An|)/(Cat+|An|)  =  -0.00
                               Iterations  =  52
                                  Total H  = 1.110124e+02
                                  Total O  = 5.550622e+01

----------------------------Distribution of species----------------------------

                                               Log       Log       Log    mole V
   Species          Molality    Activity  Molality  Activity     Gamma   cm³/mol

   OH-             4.203e-06   2.675e-06    -5.376    -5.573    -0.196     -2.97
   H+              4.858e-09   3.721e-09    -8.314    -8.429    -0.116      0.00
   H2O             5.551e+01   9.834e-01     1.744    -0.007     0.000     18.07
F             4.992e-01
   F-              4.759e-01   3.029e-01    -0.323    -0.519    -0.196     -0.24
   KF              2.333e-02   2.317e-02    -1.632    -1.635    -0.003     -0.32
   HF2-            2.683e-06   1.964e-06    -5.571    -5.707    -0.135     22.68
   HF              1.515e-06   1.690e-06    -5.820    -5.772     0.048     12.50
H(0)          3.672e-17
   H2              1.836e-17   2.060e-17   -16.736   -16.686     0.050     14.99
K             4.992e-01
   K+              4.759e-01   3.079e-01    -0.323    -0.512    -0.189      9.54
   KF              2.333e-02   2.317e-02    -1.632    -1.635    -0.003     -0.32
O(0)          0.000e+00
   O2              0.000e+00   0.000e+00   -59.052   -59.005     0.048     30.40

------------------------------Saturation indices-------------------------------

  Phase               SI** log IAP   log K(298 K,   1 atm)

  H2(g)           -13.59    -16.69   -3.10  H2
  H2O(g)           -1.51     -0.01    1.50  H2O
  O2(g)           -56.11    -59.00   -2.89  O2

**For a gas, SI = log10(fugacity). Fugacity = pressure * phi / 1 atm.
  For ideal gases, phi = 1.

Reaction step 20.

Using solution 1.	
Using temperature 1.	
Using reaction 1.	

Reaction 1.	

	  5.239e-01 moles of the following reaction have been added:

	                 Relative
	Reactant            moles

	KF                   1.00000

	                 Relative
	Element             moles
	F                    1.00000
	K                    1.00000

-----------------------------Solution composition------------------------------

	Elements           Molality       Moles

	F                 5.239e-01   5.239e-01
	K                 5.239e-01   5.239e-01

----------------------------Description of solution----------------------------

                                       pH  =   8.442      Charge balance
                                       pe  =  -1.977      Adjusted to redox equilibrium
      Specific Conductance (µS/cm,  25°C)  = 49597
                          Density (g/cm³)  =   1.02263
                               Volume (L)  =   1.00763
                        Viscosity (mPa s)  =   0.95099
                        Activity of water  =   0.983
                 Ionic strength (mol/kgw)  =   4.985e-01
                       Mass of water (kg)  =   1.000e+00
                 Total alkalinity (eq/kg)  =  -4.096e-13
                         Temperature (°C)  =  25.00
                  Electrical balance (eq)  =  -9.485e-11
 Percent error, 100*(Cat-|An|)/(Cat+|An|)  =  -0.00
                               Iterations  =  28
                                  Total H  = 1.110124e+02
                                  Total O  = 5.550622e+01

----------------------------Distribution of species----------------------------

                                               Log       Log       Log    mole V
   Species          Molality    Activity  Molality  Activity     Gamma   cm³/mol

   OH-             4.350e-06   2.753e-06    -5.361    -5.560    -0.199     -2.93
   H+              4.726e-09   3.613e-09    -8.325    -8.442    -0.117      0.00
   H2O             5.551e+01   9.826e-01     1.744    -0.008     0.000     18.07
F             5.239e-01
   F-              4.985e-01   3.154e-01    -0.302    -0.501    -0.199     -0.18
   KF              2.534e-02   2.515e-02    -1.596    -1.599    -0.003     -0.32
   HF2-            2.822e-06   2.069e-06    -5.549    -5.684    -0.135     22.70
   HF              1.524e-06   1.709e-06    -5.817    -5.767     0.050     12.50
H(0)          1.474e-16
   H2              7.372e-17   8.317e-17   -16.132   -16.080     0.052     14.99
K             5.239e-01
   K+              4.985e-01   3.209e-01    -0.302    -0.494    -0.191      9.56
   KF              2.534e-02   2.515e-02    -1.596    -1.599    -0.003     -0.32
O(0)          0.000e+00
   O2              0.000e+00   0.000e+00   -60.268   -60.218     0.050     30.40

------------------------------Saturation indices-------------------------------

  Phase               SI** log IAP   log K(298 K,   1 atm)

  H2(g)           -12.98    -16.08   -3.10  H2
  H2O(g)           -1.51     -0.01    1.50  H2O
  O2(g)           -57.33    -60.22   -2.89  O2

**For a gas, SI = log10(fugacity). Fugacity = pressure * phi / 1 atm.
  For ideal gases, phi = 1.

Reaction step 21.

Using solution 1.	
Using temperature 1.	
Using reaction 1.	

Reaction 1.	

	  5.239e-01 moles of the following reaction have been added:

	                 Relative
	Reactant            moles

	KF                   1.00000

	                 Relative
	Element             moles
	F                    1.00000
	K                    1.00000

-----------------------------Solution composition------------------------------

	Elements           Molality       Moles

	F                 5.239e-01   5.239e-01
	K                 5.239e-01   5.239e-01

----------------------------Description of solution----------------------------

                                       pH  =   8.442      Charge balance
                                       pe  =  -1.792      Adjusted to redox equilibrium
      Specific Conductance (µS/cm,  25°C)  = 49600
                          Density (g/cm³)  =   1.02263
                               Volume (L)  =   1.00763
                        Viscosity (mPa s)  =   0.95100
                        Activity of water  =   0.983
                 Ionic strength (mol/kgw)  =   4.986e-01
                       Mass of water (kg)  =   1.000e+00
                 Total alkalinity (eq/kg)  =   6.999e-17
                         Temperature (°C)  =  25.00
                  Electrical balance (eq)  =  -1.395e-14
 Percent error, 100*(Cat-|An|)/(Cat+|An|)  =  -0.00
                               Iterations  =  17
                                  Total H  = 1.110124e+02
                                  Total O  = 5.550622e+01

----------------------------Distribution of species----------------------------

                                               Log       Log       Log    mole V
   Species          Molality    Activity  Molality  Activity     Gamma   cm³/mol

   OH-             4.351e-06   2.753e-06    -5.361    -5.560    -0.199     -2.93
   H+              4.726e-09   3.613e-09    -8.326    -8.442    -0.117      0.00
   H2O             5.551e+01   9.826e-01     1.744    -0.008     0.000     18.07
F             5.239e-01
   F-              4.986e-01   3.155e-01    -0.302    -0.501    -0.199     -0.18
   KF              2.534e-02   2.516e-02    -1.596    -1.599    -0.003     -0.32
   HF2-            2.822e-06   2.069e-06    -5.549    -5.684    -0.135     22.70
   HF              1.524e-06   1.709e-06    -5.817    -5.767     0.050     12.50
H(0)          6.289e-17
   H2              3.144e-17   3.547e-17   -16.502   -16.450     0.052     14.99
K             5.239e-01
   K+              4.986e-01   3.209e-01    -0.302    -0.494    -0.191      9.56
   KF              2.534e-02   2.516e-02    -1.596    -1.599    -0.003     -0.32
O(0)          0.000e+00
   O2              0.000e+00   0.000e+00   -59.527   -59.478     0.050     30.40

------------------------------Saturation indices-------------------------------

  Phase               SI** log IAP   log K(298 K,   1 atm)

  H2(g)           -13.35    -16.45   -3.10  H2
  H2O(g)           -1.51     -0.01    1.50  H2O
  O2(g)           -56.59    -59.48   -2.89  O2

**For a gas, SI = log10(fugacity). Fugacity = pressure * phi / 1 atm.
  For ideal gases, phi = 1.

Reaction step 22.

Using solution 1.	
Using temperature 1.	
Using reaction 1.	

Reaction 1.	

	  5.994e-01 moles of the following reaction have been added:

	                 Relative
	Reactant            moles

	KF                   1.00000

	                 Relative
	Element             moles
	F                    1.00000
	K                    1.00000

-----------------------------Solution composition------------------------------

	Elements           Molality       Moles

	F                 5.994e-01   5.994e-01
	K                 5.994e-01   5.994e-01

----------------------------Description of solution----------------------------

                                       pH  =   8.478      Charge balance
                                       pe  =  -1.748      Adjusted to redox equilibrium
      Specific Conductance (µS/cm,  25°C)  = 55855
                          Density (g/cm³)  =   1.02621
                               Volume (L)  =   1.00839
                        Viscosity (mPa s)  =   0.95897
                        Activity of water  =   0.980
                 Ionic strength (mol/kgw)  =   5.675e-01
                       Mass of water (kg)  =   1.000e+00
                 Total alkalinity (eq/kg)  =  -1.720e-15
                         Temperature (°C)  =  25.00
                  Electrical balance (eq)  =  -2.136e-12
 Percent error, 100*(Cat-|An|)/(Cat+|An|)  =  -0.00
                               Iterations  =  35
                                  Total H  = 1.110124e+02
                                  Total O  = 5.550622e+01

----------------------------Distribution of species----------------------------

                                               Log       Log       Log    mole V
   Species          Molality    Activity  Molality  Activity     Gamma   cm³/mol

   OH-             4.790e-06   2.982e-06    -5.320    -5.526    -0.206     -2.81
   H+              4.376e-09   3.327e-09    -8.359    -8.478    -0.119      0.00
   H2O             5.551e+01   9.802e-01     1.744    -0.009     0.000     18.07
F             5.994e-01
   F-              5.675e-01   3.532e-01    -0.246    -0.452    -0.206     -0.02
   KF              3.188e-02   3.162e-02    -1.497    -1.500    -0.004     -0.32
   HF2-            3.239e-06   2.389e-06    -5.490    -5.622    -0.132     22.74
   HF              1.547e-06   1.762e-06    -5.811    -5.754     0.057     12.50
H(0)          4.274e-17
   H2              2.137e-17   2.451e-17   -16.670   -16.611     0.060     14.99
K             5.994e-01
   K+              5.675e-01   3.602e-01    -0.246    -0.443    -0.197      9.60
   KF              3.188e-02   3.162e-02    -1.497    -1.500    -0.004     -0.32
O(0)          0.000e+00
   O2              0.000e+00   0.000e+00   -59.215   -59.159     0.057     30.40

------------------------------Saturation indices-------------------------------

  Phase               SI** log IAP   log K(298 K,   1 atm)

  H2(g)           -13.51    -16.61   -3.10  H2
  H2O(g)           -1.51     -0.01    1.50  H2O
  O2(g)           -56.27    -59.16   -2.89  O2

**For a gas, SI = log10(fugacity). Fugacity = pressure * phi / 1 atm.
  For ideal gases, phi = 1.

Reaction step 23.

Using solution 1.	
Using temperature 1.	
Using reaction 1.	

Reaction 1.	

	  6.122e-01 moles of the following reaction have been added:

	                 Relative
	Reactant            moles

	KF                   1.00000

	                 Relative
	Element             moles
	F                    1.00000
	K                    1.00000

-----------------------------Solution composition------------------------------

	Elements           Molality       Moles

	F                 6.122e-01   6.122e-01
	K                 6.122e-01   6.122e-01

----------------------------Description of solution----------------------------

                                       pH  =   8.484      Charge balance
                                       pe  =  -2.146      Adjusted to redox equilibrium
      Specific Conductance (µS/cm,  25°C)  = 56905
                          Density (g/cm³)  =   1.02682
                               Volume (L)  =   1.00852
                        Viscosity (mPa s)  =   0.96034
                        Activity of water  =   0.980
                 Ionic strength (mol/kgw)  =   5.792e-01
                       Mass of water (kg)  =   1.000e+00
                 Total alkalinity (eq/kg)  =  -1.681e-14
                         Temperature (°C)  =  25.00
                  Electrical balance (eq)  =  -1.112e-11
 Percent error, 100*(Cat-|An|)/(Cat+|An|)  =  -0.00
                               Iterations  =  29
                                  Total H  = 1.110124e+02
                                  Total O  = 5.550622e+01

----------------------------Distribution of species----------------------------

                                               Log       Log       Log    mole V
   Species          Molality    Activity  Molality  Activity     Gamma   cm³/mol

   OH-             4.864e-06   3.020e-06    -5.313    -5.520    -0.207     -2.79
   H+              4.324e-09   3.284e-09    -8.364    -8.484    -0.119      0.00
   H2O             5.551e+01   9.797e-01     1.744    -0.009     0.000     18.07
F             6.122e-01
   F-              5.792e-01   3.596e-01    -0.237    -0.444    -0.207      0.01
[...]

Reaction step 12.

Using solution 1.	
Using temperature 1.	
Using pressure 1.	
Using reaction 1.	

Reaction 1.	

	  5.032e-01 moles of the following reaction have been added:

	                 Relative
	Reactant            moles

	KF                   1.00000

	                 Relative
	Element             moles
	F                    1.00000
	K                    1.00000

-----------------------------Solution composition------------------------------

	Elements           Molality       Moles

	F                 5.032e-01   5.032e-01
	K                 5.032e-01   5.032e-01

----------------------------Description of solution----------------------------

                                       pH  =   7.753      Charge balance
                                       pe  =   2.458      Adjusted to redox equilibrium
      Specific Conductance (µS/cm, 300°C)  = 126583
                          Density (g/cm³)  =   0.78613
                               Volume (L)  =   1.30924
                        Viscosity (mPa s)  =   0.10164 (solute contributions limited to 200 °C)
                        Activity of water  =   0.987
                 Ionic strength (mol/kgw)  =   2.688e-01
                       Mass of water (kg)  =   1.000e+00
                 Total alkalinity (eq/kg)  =   2.948e-12
                         Temperature (°C)  = 299.55
                           Pressure (atm)  = 299.06
                  Electrical balance (eq)  =  -1.759e-12
 Percent error, 100*(Cat-|An|)/(Cat+|An|)  =  -0.00
                               Iterations  =   8
                                  Total H  = 1.110124e+02
                                  Total O  = 5.550622e+01

----------------------------Distribution of species----------------------------

                                               Log       Log       Log    mole V
   Species          Molality    Activity  Molality  Activity     Gamma   cm³/mol

   OH-             9.862e-04   4.476e-04    -3.006    -3.349    -0.343    -97.61
   H+              2.849e-08   1.766e-08    -7.545    -7.753    -0.208      0.00
   H2O             5.551e+01   9.869e-01     1.744    -0.006     0.000     23.97
F             5.032e-01
   F-              2.678e-01   1.215e-01    -0.572    -0.915    -0.343    -90.06
   KF              2.344e-01   2.335e-01    -0.630    -0.632    -0.002     -5.30
   HF              9.396e-04   9.996e-04    -3.027    -3.000     0.027     15.09
   HF2-            4.652e-05   2.360e-05    -4.332    -4.627    -0.295    -34.15
H(0)          9.300e-25
   H2              4.650e-25   4.962e-25   -24.333   -24.304     0.028     41.58
K             5.032e-01
   K+              2.688e-01   1.231e-01    -0.571    -0.910    -0.339     15.47
   KF              2.344e-01   2.335e-01    -0.630    -0.632    -0.002     -5.30
O(0)          5.863e-11
   O2              2.931e-11   3.119e-11   -10.533   -10.506     0.027     56.48

------------------------------Saturation indices-------------------------------

  Phase               SI** log IAP   log K(572 K, 299 atm)

  H2(g)           -21.95    -24.30   -2.35  H2
  H2O(g)            1.86     -0.01   -1.87  H2O
  O2(g)            -7.98    -10.51   -2.52  O2

**For a gas, SI = log10(fugacity). Fugacity = pressure * phi / 1 atm.
  For ideal gases, phi = 1.

Reaction step 13.

Using solution 1.	
Using temperature 1.	
Using pressure 1.	
Using reaction 1.	

Reaction 1.	

	  5.032e-01 moles of the following reaction have been added:

	                 Relative
	Reactant            moles

	KF                   1.00000

	                 Relative
	Element             moles
	F                    1.00000
	K                    1.00000

-----------------------------Solution composition------------------------------

	Elements           Molality       Moles

	F                 5.032e-01   5.032e-01
	K                 5.032e-01   5.032e-01

----------------------------Description of solution----------------------------

                                       pH  =   7.753      Charge balance
                                       pe  =   2.458      Adjusted to redox equilibrium
      Specific Conductance (µS/cm, 300°C)  = 126583
                          Density (g/cm³)  =   0.78613
                               Volume (L)  =   1.30924
                        Viscosity (mPa s)  =   0.10164 (solute contributions limited to 200 °C)
                        Activity of water  =   0.987
                 Ionic strength (mol/kgw)  =   2.688e-01
                       Mass of water (kg)  =   1.000e+00
                 Total alkalinity (eq/kg)  =   2.948e-12
                         Temperature (°C)  = 299.55
                           Pressure (atm)  = 299.06
                  Electrical balance (eq)  =  -1.759e-12
 Percent error, 100*(Cat-|An|)/(Cat+|An|)  =  -0.00
                               Iterations  =   8
                                  Total H  = 1.110124e+02
                                  Total O  = 5.550622e+01

----------------------------Distribution of species----------------------------

                                               Log       Log       Log    mole V
   Species          Molality    Activity  Molality  Activity     Gamma   cm³/mol

   OH-             9.862e-04   4.476e-04    -3.006    -3.349    -0.343    -97.61
   H+              2.849e-08   1.766e-08    -7.545    -7.753    -0.208      0.00
   H2O             5.551e+01   9.869e-01     1.744    -0.006     0.000     23.97
F             5.032e-01
   F-              2.678e-01   1.215e-01    -0.572    -0.915    -0.343    -90.06
   KF              2.344e-01   2.335e-01    -0.630    -0.632    -0.002     -5.30
   HF              9.396e-04   9.996e-04    -3.027    -3.000     0.027     15.09
   HF2-            4.652e-05   2.360e-05    -4.332    -4.627    -0.295    -34.15
H(0)          9.300e-25
   H2              4.650e-25   4.962e-25   -24.333   -24.304     0.028     41.58
K             5.032e-01
   K+              2.688e-01   1.231e-01    -0.571    -0.910    -0.339     15.47
   KF              2.344e-01   2.335e-01    -0.630    -0.632    -0.002     -5.30
O(0)          5.863e-11
   O2              2.931e-11   3.119e-11   -10.533   -10.506     0.027     56.48

------------------------------Saturation indices-------------------------------

  Phase               SI** log IAP   log K(572 K, 299 atm)

  H2(g)           -21.95    -24.30   -2.35  H2
  H2O(g)            1.86     -0.01   -1.87  H2O
  O2(g)            -7.98    -10.51   -2.52  O2

**For a gas, SI = log10(fugacity). Fugacity = pressure * phi / 1 atm.
  For ideal gases, phi = 1.

Reaction step 14.

Using solution 1.	
Using temperature 1.	
Using pressure 1.	
Using reaction 1.	

Reaction 1.	

	  1.094e+00 moles of the following reaction have been added:

	                 Relative
	Reactant            moles

	KF                   1.00000

	                 Relative
	Element             moles
	F                    1.00000
	K                    1.00000

-----------------------------Solution composition------------------------------

	Elements           Molality       Moles

	F                 1.094e+00   1.094e+00
	K                 1.094e+00   1.094e+00

----------------------------Description of solution----------------------------

                                       pH  =   7.834      Charge balance
                                       pe  =   2.262      Adjusted to redox equilibrium
      Specific Conductance (µS/cm, 300°C)  = 223138
                          Density (g/cm³)  =   0.82210
                               Volume (L)  =   1.29369
                        Viscosity (mPa s)  =   0.10464 (solute contributions limited to 200 °C)
                        Activity of water  =   0.973
                 Ionic strength (mol/kgw)  =   4.855e-01
                       Mass of water (kg)  =   1.000e+00
                 Total alkalinity (eq/kg)  =  -1.440e-12
                         Temperature (°C)  = 299.55
                           Pressure (atm)  = 299.06
                  Electrical balance (eq)  =   7.675e-13
 Percent error, 100*(Cat-|An|)/(Cat+|An|)  =   0.00
                               Iterations  =   9
                                  Total H  = 1.110124e+02
                                  Total O  = 5.550622e+01

----------------------------Distribution of species----------------------------

                                               Log       Log       Log    mole V
   Species          Molality    Activity  Molality  Activity     Gamma   cm³/mol

   OH-             1.298e-03   5.123e-04    -2.887    -3.291    -0.404    -91.76
   H+              2.481e-08   1.466e-08    -7.605    -7.834    -0.229      0.00
   H2O             5.551e+01   9.731e-01     1.744    -0.012     0.000     23.97
F             1.094e+00
   KF              6.081e-01   6.038e-01    -0.216    -0.219    -0.003     -5.30
   F-              4.841e-01   1.911e-01    -0.315    -0.719    -0.404    -85.81
   HF              1.199e-03   1.341e-03    -2.921    -2.873     0.049     15.09
   HF2-            9.839e-05   4.938e-05    -4.007    -4.306    -0.299    -28.54
H(0)          1.500e-24
   H2              7.500e-25   8.434e-25   -24.125   -24.074     0.051     41.58
K             1.094e+00
   KF              6.081e-01   6.038e-01    -0.216    -0.219    -0.003     -5.30
   K+              4.855e-01   1.949e-01    -0.314    -0.710    -0.396     17.18
O(0)          1.878e-11
   O2              9.388e-12   1.050e-11   -11.027   -10.979     0.049     56.48

------------------------------Saturation indices-------------------------------

  Phase               SI** log IAP   log K(572 K, 299 atm)

  H2(g)           -21.72    -24.07   -2.35  H2
  H2O(g)            1.86     -0.01   -1.87  H2O
  O2(g)            -8.46    -10.98   -2.52  O2

**For a gas, SI = log10(fugacity). Fugacity = pressure * phi / 1 atm.
  For ideal gases, phi = 1.

Reaction step 15.

Using solution 1.	
Using temperature 1.	
Using pressure 1.	
Using reaction 1.	

Reaction 1.	

	  1.094e+00 moles of the following reaction have been added:

	                 Relative
	Reactant            moles

	KF                   1.00000

	                 Relative
	Element             moles
	F                    1.00000
	K                    1.00000

-----------------------------Solution composition------------------------------

	Elements           Molality       Moles

	F                 1.094e+00   1.094e+00
	K                 1.094e+00   1.094e+00

----------------------------Description of solution----------------------------

                                       pH  =   7.834      Charge balance
                                       pe  =   2.262      Adjusted to redox equilibrium
      Specific Conductance (µS/cm, 300°C)  = 223138
                          Density (g/cm³)  =   0.82210
                               Volume (L)  =   1.29369
                        Viscosity (mPa s)  =   0.10464 (solute contributions limited to 200 °C)
                        Activity of water  =   0.973
                 Ionic strength (mol/kgw)  =   4.855e-01
                       Mass of water (kg)  =   1.000e+00
                 Total alkalinity (eq/kg)  =  -1.440e-12
                         Temperature (°C)  = 299.55
                           Pressure (atm)  = 299.06
                  Electrical balance (eq)  =   7.675e-13
 Percent error, 100*(Cat-|An|)/(Cat+|An|)  =   0.00
                               Iterations  =   9
                                  Total H  = 1.110124e+02
                                  Total O  = 5.550622e+01

----------------------------Distribution of species----------------------------

                                               Log       Log       Log    mole V
   Species          Molality    Activity  Molality  Activity     Gamma   cm³/mol

   OH-             1.298e-03   5.123e-04    -2.887    -3.291    -0.404    -91.76
   H+              2.481e-08   1.466e-08    -7.605    -7.834    -0.229      0.00
   H2O             5.551e+01   9.731e-01     1.744    -0.012     0.000     23.97
F             1.094e+00
   KF              6.081e-01   6.038e-01    -0.216    -0.219    -0.003     -5.30
   F-              4.841e-01   1.911e-01    -0.315    -0.719    -0.404    -85.81
   HF              1.199e-03   1.341e-03    -2.921    -2.873     0.049     15.09
   HF2-            9.839e-05   4.938e-05    -4.007    -4.306    -0.299    -28.54
H(0)          1.500e-24
   H2              7.500e-25   8.434e-25   -24.125   -24.074     0.051     41.58
K             1.094e+00
   KF              6.081e-01   6.038e-01    -0.216    -0.219    -0.003     -5.30
   K+              4.855e-01   1.949e-01    -0.314    -0.710    -0.396     17.18
O(0)          1.878e-11
   O2              9.388e-12   1.050e-11   -11.027   -10.979     0.049     56.48

------------------------------Saturation indices-------------------------------

  Phase               SI** log IAP   log K(572 K, 299 atm)

  H2(g)           -21.72    -24.07   -2.35  H2
  H2O(g)            1.86     -0.01   -1.87  H2O
  O2(g)            -8.46    -10.98   -2.52  O2

**For a gas, SI = log10(fugacity). Fugacity = pressure * phi / 1 atm.
  For ideal gases, phi = 1.

Reaction step 16.

Using solution 1.	
Using temperature 1.	
Using pressure 1.	
Using reaction 1.	

Reaction 1.	

	  2.998e+00 moles of the following reaction have been added:

	                 Relative
	Reactant            moles

	KF                   1.00000

	                 Relative
	Element             moles
	F                    1.00000
	K                    1.00000

-----------------------------Solution composition------------------------------

	Elements           Molality       Moles

	F                 2.999e+00   2.999e+00
	K                 2.999e+00   2.999e+00

----------------------------Description of solution----------------------------

                                       pH  =   7.937      Charge balance
                                       pe  =   2.152      Adjusted to redox equilibrium
      Specific Conductance (µS/cm, 300°C)  = 469208
                          Density (g/cm³)  =   0.93073
                               Volume (L)  =   1.26161
                        Viscosity (mPa s)  =   0.10511 (solute contributions limited to 200 °C)
                        Activity of water  =   0.932
                 Ionic strength (mol/kgw)  =   9.952e-01
                       Mass of water (kg)  =   1.000e+00
                 Total alkalinity (eq/kg)  =  -2.721e-11
                         Temperature (°C)  = 299.55
                           Pressure (atm)  = 299.06
                  Electrical balance (eq)  =   1.165e-11
 Percent error, 100*(Cat-|An|)/(Cat+|An|)  =   0.00
                               Iterations  =   9
                                  Total H  = 1.110124e+02
                                  Total O  = 5.550622e+01

----------------------------Distribution of species----------------------------

                                               Log       Log       Log    mole V
   Species          Molality    Activity  Molality  Activity     Gamma   cm³/mol

   OH-             1.751e-03   5.832e-04    -2.757    -3.234    -0.477    -81.71
   H+              2.060e-08   1.157e-08    -7.686    -7.937    -0.251      0.00
   H2O             5.551e+01   9.321e-01     1.744    -0.031     0.000     23.95
F             2.999e+00
   KF              2.003e+00   1.975e+00     0.302     0.295    -0.006     -5.30
   F-              9.932e-01   3.308e-01    -0.003    -0.480    -0.477    -76.69
   HF              1.543e-03   1.941e-03    -2.812    -2.712     0.100     15.09
   HF2-            2.081e-04   1.234e-04    -3.682    -3.909    -0.227    -19.05
H(0)          1.367e-24
   H2              6.837e-25   8.697e-25   -24.165   -24.061     0.104     41.58
K             2.999e+00
   KF              2.003e+00   1.975e+00     0.302     0.295    -0.006     -5.30
   K+              9.952e-01   3.430e-01    -0.002    -0.465    -0.463     19.29
O(0)          1.440e-11
   O2              7.201e-12   9.055e-12   -11.143   -11.043     0.100     56.48

------------------------------Saturation indices-------------------------------

  Phase               SI** log IAP   log K(572 K, 299 atm)

  H2(g)           -21.71    -24.06   -2.35  H2
  H2O(g)            1.84     -0.03   -1.87  H2O
  O2(g)            -8.52    -11.04   -2.52  O2

**For a gas, SI = log10(fugacity). Fugacity = pressure * phi / 1 atm.
  For ideal gases, phi = 1.

Reaction step 17.

Using solution 1.	
Using temperature 1.	
Using pressure 1.	
Using reaction 1.	

Reaction 1.	

	  2.998e+00 moles of the following reaction have been added:

	                 Relative
	Reactant            moles

	KF                   1.00000

	                 Relative
	Element             moles
	F                    1.00000
	K                    1.00000

-----------------------------Solution composition------------------------------

	Elements           Molality       Moles

	F                 2.999e+00   2.999e+00
	K                 2.999e+00   2.999e+00

----------------------------Description of solution----------------------------

                                       pH  =   7.937      Charge balance
                                       pe  =   2.152      Adjusted to redox equilibrium
      Specific Conductance (µS/cm, 300°C)  = 469208
                          Density (g/cm³)  =   0.93073
                               Volume (L)  =   1.26161
                        Viscosity (mPa s)  =   0.10511 (solute contributions limited to 200 °C)
                        Activity of water  =   0.932
                 Ionic strength (mol/kgw)  =   9.952e-01
                       Mass of water (kg)  =   1.000e+00
                 Total alkalinity (eq/kg)  =  -2.721e-11
                         Temperature (°C)  = 299.55
                           Pressure (atm)  = 299.06
                  Electrical balance (eq)  =   1.165e-11
 Percent error, 100*(Cat-|An|)/(Cat+|An|)  =   0.00
                               Iterations  =   9
                                  Total H  = 1.110124e+02
                                  Total O  = 5.550622e+01

----------------------------Distribution of species----------------------------

                                               Log       Log       Log    mole V
   Species          Molality    Activity  Molality  Activity     Gamma   cm³/mol

   OH-             1.751e-03   5.832e-04    -2.757    -3.234    -0.477    -81.71
   H+              2.060e-08   1.157e-08    -7.686    -7.937    -0.251      0.00
   H2O             5.551e+01   9.321e-01     1.744    -0.031     0.000     23.95
F             2.999e+00
   KF              2.003e+00   1.975e+00     0.302     0.295    -0.006     -5.30
   F-              9.932e-01   3.308e-01    -0.003    -0.480    -0.477    -76.69
   HF              1.543e-03   1.941e-03    -2.812    -2.712     0.100     15.09
   HF2-            2.081e-04   1.234e-04    -3.682    -3.909    -0.227    -19.05
H(0)          1.367e-24
   H2              6.837e-25   8.697e-25   -24.165   -24.061     0.104     41.58
K             2.999e+00
   KF              2.003e+00   1.975e+00     0.302     0.295    -0.006     -5.30
   K+              9.952e-01   3.430e-01    -0.002    -0.465    -0.463     19.29
O(0)          1.440e-11
   O2              7.201e-12   9.055e-12   -11.143   -11.043     0.100     56.48

------------------------------Saturation indices-------------------------------

  Phase               SI** log IAP   log K(572 K, 299 atm)

  H2(g)           -21.71    -24.06   -2.35  H2
  H2O(g)            1.84     -0.03   -1.87  H2O
  O2(g)            -8.52    -11.04   -2.52  O2

**For a gas, SI = log10(fugacity). Fugacity = pressure * phi / 1 atm.
  For ideal gases, phi = 1.

------------------
End of simulation.
------------------

-------------------------------------
Reading input data for simulation 14.
-------------------------------------

