WARNING: Database file from DATABASE keyword is used; command line argument ignored.
   Input file: Vm_MgCl2_sol
  Output file: Vm_MgCl2_sol.out
Database file: ../database/phreeqc.dat

------------------
Reading data base.
------------------

	SOLUTION_MASTER_SPECIES
	SOLUTION_SPECIES
	PHASES
	GAS_BINARY_PARAMETERS
	EXCHANGE_MASTER_SPECIES
	EXCHANGE_SPECIES
	SURFACE_MASTER_SPECIES
	SURFACE_SPECIES
	MEAN_GAMMAS
	RATES
	END
------------------------------------
Reading input data for simulation 1.
------------------------------------

	DATABASE ../database/phreeqc.dat
	SELECTED_OUTPUT 101
	    file                 Vm_MgCl2_sol_101.sel
	USER_PUNCH 101
	    headings Mu SC
	    start
	10 PUNCH STR_F$(MU, 20, 12)
	20 PUNCH STR_F$(SC, 20, 10)
	    end
	SOLUTION 1
	 pH 7 charge
	END
-------------------------------------------
Beginning of initial solution calculations.
-------------------------------------------

Initial solution 1.	

-----------------------------Solution composition------------------------------

	Elements           Molality       Moles

	Pure water     

----------------------------Description of solution----------------------------

                                       pH  =   6.997      Charge balance
                                       pe  =   4.000    
      Specific Conductance (µS/cm,  25°C)  = 0
                          Density (g/cm³)  =   0.99704
                               Volume (L)  =   1.00297
                        Viscosity (mPa s)  =   0.89002
                        Activity of water  =   1.000
                 Ionic strength (mol/kgw)  =   1.006e-07
                       Mass of water (kg)  =   1.000e+00
                 Total alkalinity (eq/kg)  =   3.040e-17
                         Temperature (°C)  =  25.00
                  Electrical balance (eq)  =  -3.040e-17
 Percent error, 100*(Cat-|An|)/(Cat+|An|)  =  -0.00
                               Iterations  =   2
                                  Total H  = 1.110124e+02
                                  Total O  = 5.550622e+01

----------------------------Distribution of species----------------------------

                                               Log       Log       Log    mole V
   Species          Molality    Activity  Molality  Activity     Gamma   cm³/mol

   OH-             1.006e-07   1.006e-07    -6.997    -6.997    -0.000     -4.14
   H+              1.006e-07   1.006e-07    -6.997    -6.997    -0.000      0.00
   H2O             5.551e+01   1.000e+00     1.744    -0.000     0.000     18.07
H(0)          1.433e-25
   H2              7.166e-26   7.166e-26   -25.145   -25.145     0.000     14.99
O(0)          0.000e+00
   O2              0.000e+00   0.000e+00   -42.073   -42.073     0.000     30.40

------------------------------Saturation indices-------------------------------

  Phase               SI** log IAP   log K(298 K,   1 atm)

  H2(g)           -22.05    -25.14   -3.10  H2
  H2O(g)           -1.50     -0.00    1.50  H2O
  O2(g)           -39.18    -42.07   -2.89  O2

**For a gas, SI = log10(fugacity). Fugacity = pressure * phi / 1 atm.
  For ideal gases, phi = 1.

------------------
End of simulation.
------------------

------------------------------------
Reading input data for simulation 2.
------------------------------------

	USE solution 1
	REACTION_TEMPERATURE
	 5.000000
	REACTION_PRESSURE
	 0.000000
	REACTION
	 MgCl2 1
	0 0.032780 0.041370 0.048510 0.065620 0.078900 0.096270 0.130640 0.195000 0.195250 0.267670 0.282780 0.374850 0.408110 0.524760 0.551930 0.634040 0.765350 0.998510
	USER_GRAPH
	 -headings 5.oC
	-axis_titles "MgCl2 / (mol/kg H2O)" "MgCl2 molar volume / (cm3/mol)"
	10 data 0, 13.380000, 13.444186, 13.385472, 14.000000, 14.161872, 14.031992, 14.350000, 14.860383, 14.961403, 15.760000, 15.554302, 16.085995, 16.246174, 17.300000, 16.890149, 17.255539, 18.000000, 19.090000,
	20 dim d(19)
	30 read d(1), d(2), d(3), d(4), d(5), d(6), d(7), d(8), d(9), d(10), d(11), d(12), d(13), d(14), d(15), d(16), d(17), d(18), d(19),
	40 if step_no = 1 then put(rho, 10)
	50 if step_no > 1 then Vmol = (1e3 + tot("Mg") * 95.218) / (tot("Mg") * rho) - 1e3 / (tot("Mg") * get(10))
	60 if step_no = 1 then dif = 0 else dif = Vmol - d(step_no)
	62 if step_no = 1 then goto 90
	70 plot_xy tot("Mg"), d(step_no), line_w = 0, color = Yellow #aph_x tot("Mg") # dif, str$(tc), str$(pressure), str$(step_no + get(1))
	80 plot_xy tot("Mg"), Vmol, symbol = None, color = Yellow #step_no = 264 then put(step_no + get(1), 1)
	90 end
	END
-----------------------------------------
Beginning of batch-reaction calculations.
-----------------------------------------

Reaction step 1.

Using solution 1.	
Using temperature 1.	
Using pressure 1.	
Using reaction 1.	

Reaction 1.	

	  0.000e+00 moles of the following reaction have been added:

	                 Relative
	Reactant            moles

	MgCl2                1.00000

	                 Relative
	Element             moles
	Cl                   2.00000
	Mg                   1.00000

-----------------------------Solution composition------------------------------

	Elements           Molality       Moles

	Pure water     

----------------------------Description of solution----------------------------

                                       pH  =   7.365      Charge balance
                                       pe  =  -0.484      Adjusted to redox equilibrium
      Specific Conductance (µS/cm,   5°C)  = 0
                          Density (g/cm³)  =   0.99991
                               Volume (L)  =   1.00009
                        Viscosity (mPa s)  =   1.51833
                        Activity of water  =   1.000
                 Ionic strength (mol/kgw)  =   4.318e-08
                       Mass of water (kg)  =   1.000e+00
                 Total alkalinity (eq/kg)  =   3.041e-17
                         Temperature (°C)  =   5.00
                           Pressure (atm)  =  0.01
                  Electrical balance (eq)  =  -3.041e-17
 Percent error, 100*(Cat-|An|)/(Cat+|An|)  =  -0.00
                               Iterations  =   8
                                  Total H  = 1.110124e+02
                                  Total O  = 5.550622e+01

----------------------------Distribution of species----------------------------

                                               Log       Log       Log    mole V
   Species          Molality    Activity  Molality  Activity     Gamma   cm³/mol

   OH-             4.318e-08   4.317e-08    -7.365    -7.365    -0.000     -5.55
   H+              4.318e-08   4.317e-08    -7.365    -7.365    -0.000      0.00
   H2O             5.551e+01   1.000e+00     1.744    -0.000     0.000     18.02
H(0)          3.040e-17
   H2              1.520e-17   1.520e-17   -16.818   -16.818     0.000     13.01
O(0)          0.000e+00
   O2              0.000e+00   0.000e+00   -65.876   -65.876     0.000     28.29

------------------------------Saturation indices-------------------------------

  Phase               SI** log IAP   log K(278 K,   0 atm)

  H2(g)           -13.77    -16.82   -3.05  H2
  H2O(g)           -2.06     -0.00    2.06  H2O
  O2(g)           -63.16    -65.88   -2.71  O2

**For a gas, SI = log10(fugacity). Fugacity = pressure * phi / 1 atm.
  For ideal gases, phi = 1.

Reaction step 2.

Using solution 1.	
Using temperature 1.	
Using pressure 1.	
Using reaction 1.	

Reaction 1.	

	  3.278e-02 moles of the following reaction have been added:

	                 Relative
	Reactant            moles

	MgCl2                1.00000

	                 Relative
	Element             moles
	Cl                   2.00000
	Mg                   1.00000

-----------------------------Solution composition------------------------------

	Elements           Molality       Moles

	Cl                6.556e-02   6.556e-02
	Mg                3.278e-02   3.278e-02

----------------------------Description of solution----------------------------

                                       pH  =   7.016      Charge balance
                                       pe  =  -0.084      Adjusted to redox equilibrium
      Specific Conductance (µS/cm,   5°C)  = 4054
                          Density (g/cm³)  =   1.00258
                               Volume (L)  =   1.00054
                        Viscosity (mPa s)  =   1.54217
                        Activity of water  =   0.998
                 Ionic strength (mol/kgw)  =   9.834e-02
                       Mass of water (kg)  =   1.000e+00
                 Total alkalinity (eq/kg)  =   2.334e-17
                         Temperature (°C)  =   5.00
                           Pressure (atm)  =  0.01
                  Electrical balance (eq)  =   2.428e-16
 Percent error, 100*(Cat-|An|)/(Cat+|An|)  =   0.00
                               Iterations  =   9
                                  Total H  = 1.110124e+02
                                  Total O  = 5.550622e+01

----------------------------Distribution of species----------------------------

                                               Log       Log       Log    mole V
   Species          Molality    Activity  Molality  Activity     Gamma   cm³/mol

   H+              1.160e-07   9.627e-08    -6.936    -7.016    -0.081      0.00
   OH-             2.514e-08   1.933e-08    -7.600    -7.714    -0.114     -5.20
   H2O             5.551e+01   9.983e-01     1.744    -0.001     0.000     18.02
Cl            6.556e-02
   Cl-             6.556e-02   5.072e-02    -1.183    -1.295    -0.111     17.19
   HCl             1.730e-09   1.905e-09    -8.762    -8.720     0.042     18.45
H(0)          2.339e-17
   H2              1.170e-17   1.198e-17   -16.932   -16.922     0.010     13.01
Mg            3.278e-02
   Mg+2            3.278e-02   1.375e-02    -1.484    -1.862    -0.377    -20.46
   MgOH+           9.255e-08   7.468e-08    -7.034    -7.127    -0.093     (0)  
O(0)          0.000e+00
   O2              0.000e+00   0.000e+00   -65.680   -65.670     0.010     28.29

------------------------------Saturation indices-------------------------------

  Phase               SI** log IAP   log K(278 K,   0 atm)

  H2(g)           -13.88    -16.92   -3.05  H2
  H2O(g)           -2.06     -0.00    2.06  H2O
  O2(g)           -62.96    -65.67   -2.71  O2

**For a gas, SI = log10(fugacity). Fugacity = pressure * phi / 1 atm.
  For ideal gases, phi = 1.

Reaction step 3.

Using solution 1.	
Using temperature 1.	
Using pressure 1.	
Using reaction 1.	

Reaction 1.	

	  4.137e-02 moles of the following reaction have been added:

	                 Relative
	Reactant            moles

	MgCl2                1.00000

	                 Relative
	Element             moles
	Cl                   2.00000
	Mg                   1.00000

-----------------------------Solution composition------------------------------

	Elements           Molality       Moles

	Cl                8.274e-02   8.274e-02
	Mg                4.137e-02   4.137e-02

----------------------------Description of solution----------------------------

                                       pH  =   6.986      Charge balance
                                       pe  =  -0.053      Adjusted to redox equilibrium
      Specific Conductance (µS/cm,   5°C)  = 5016
                          Density (g/cm³)  =   1.00327
                               Volume (L)  =   1.00067
                        Viscosity (mPa s)  =   1.54765
                        Activity of water  =   0.998
                 Ionic strength (mol/kgw)  =   1.241e-01
                       Mass of water (kg)  =   1.000e+00
                 Total alkalinity (eq/kg)  =   2.017e-17
                         Temperature (°C)  =   5.00
                           Pressure (atm)  =  0.01
                  Electrical balance (eq)  =   7.555e-15
 Percent error, 100*(Cat-|An|)/(Cat+|An|)  =   0.00
                               Iterations  =  16
                                  Total H  = 1.110124e+02
                                  Total O  = 5.550622e+01

----------------------------Distribution of species----------------------------

                                               Log       Log       Log    mole V
   Species          Molality    Activity  Molality  Activity     Gamma   cm³/mol

   H+              1.259e-07   1.034e-07    -6.900    -6.986    -0.086      0.00
   OH-             2.395e-08   1.799e-08    -7.621    -7.745    -0.124     -5.14
   H2O             5.551e+01   9.979e-01     1.744    -0.001     0.000     18.02
Cl            8.274e-02
   Cl-             8.274e-02   6.264e-02    -1.082    -1.203    -0.121     17.22
   HCl             2.237e-09   2.526e-09    -8.650    -8.598     0.053     18.45
H(0)          2.322e-17
   H2              1.161e-17   1.196e-17   -16.935   -16.922     0.013     13.01
Mg            4.137e-02
   Mg+2            4.137e-02   1.638e-02    -1.383    -1.786    -0.402    -20.40
   MgOH+           1.042e-07   8.283e-08    -6.982    -7.082    -0.100     (0)  
O(0)          0.000e+00
   O2              0.000e+00   0.000e+00   -65.682   -65.670     0.012     28.29

------------------------------Saturation indices-------------------------------

  Phase               SI** log IAP   log K(278 K,   0 atm)

  H2(g)           -13.88    -16.92   -3.05  H2
  H2O(g)           -2.06     -0.00    2.06  H2O
  O2(g)           -62.96    -65.67   -2.71  O2

**For a gas, SI = log10(fugacity). Fugacity = pressure * phi / 1 atm.
  For ideal gases, phi = 1.

Reaction step 4.

Using solution 1.	
Using temperature 1.	
Using pressure 1.	
Using reaction 1.	

Reaction 1.	

	  4.851e-02 moles of the following reaction have been added:

	                 Relative
	Reactant            moles

	MgCl2                1.00000

	                 Relative
	Element             moles
	Cl                   2.00000
	Mg                   1.00000

-----------------------------Solution composition------------------------------

	Elements           Molality       Moles

	Cl                9.702e-02   9.702e-02
	Mg                4.851e-02   4.851e-02

----------------------------Description of solution----------------------------

                                       pH  =   6.964      Charge balance
                                       pe  =  -0.137      Adjusted to redox equilibrium
      Specific Conductance (µS/cm,   5°C)  = 5800
                          Density (g/cm³)  =   1.00384
                               Volume (L)  =   1.00077
                        Viscosity (mPa s)  =   1.55215
                        Activity of water  =   0.998
                 Ionic strength (mol/kgw)  =   1.455e-01
                       Mass of water (kg)  =   1.000e+00
                 Total alkalinity (eq/kg)  =   8.041e-17
                         Temperature (°C)  =   5.00
                           Pressure (atm)  =  0.01
                  Electrical balance (eq)  =   3.444e-11
 Percent error, 100*(Cat-|An|)/(Cat+|An|)  =   0.00
                               Iterations  =  20
                                  Total H  = 1.110124e+02
                                  Total O  = 5.550622e+01

----------------------------Distribution of species----------------------------

                                               Log       Log       Log    mole V
   Species          Molality    Activity  Molality  Activity     Gamma   cm³/mol

   H+              1.335e-07   1.087e-07    -6.875    -6.964    -0.089      0.00
   OH-             2.315e-08   1.710e-08    -7.636    -7.767    -0.131     -5.10
   H2O             5.551e+01   9.975e-01     1.744    -0.001     0.000     18.02
Cl            9.702e-02
   Cl-             9.702e-02   7.234e-02    -1.013    -1.141    -0.128     17.25
   HCl             2.659e-09   3.067e-09    -8.575    -8.513     0.062     18.45
H(0)          3.765e-17
   H2              1.882e-17   1.950e-17   -16.725   -16.710     0.015     13.01
Mg            4.851e-02
   Mg+2            4.851e-02   1.848e-02    -1.314    -1.733    -0.419    -20.36
   MgOH+           1.130e-07   8.884e-08    -6.947    -7.051    -0.104     (0)  
O(0)          0.000e+00
   O2              0.000e+00   0.000e+00   -66.109   -66.094     0.015     28.29

------------------------------Saturation indices-------------------------------

  Phase               SI** log IAP   log K(278 K,   0 atm)

  H2(g)           -13.66    -16.71   -3.05  H2
  H2O(g)           -2.06     -0.00    2.06  H2O
  O2(g)           -63.38    -66.09   -2.71  O2

**For a gas, SI = log10(fugacity). Fugacity = pressure * phi / 1 atm.
  For ideal gases, phi = 1.

Reaction step 5.

Using solution 1.	
Using temperature 1.	
Using pressure 1.	
Using reaction 1.	

Reaction 1.	

	  6.562e-02 moles of the following reaction have been added:

	                 Relative
	Reactant            moles

	MgCl2                1.00000

	                 Relative
	Element             moles
	Cl                   2.00000
	Mg                   1.00000

-----------------------------Solution composition------------------------------

	Elements           Molality       Moles

	Cl                1.312e-01   1.312e-01
	Mg                6.562e-02   6.562e-02

----------------------------Description of solution----------------------------

                                       pH  =   6.921      Charge balance
                                       pe  =  -0.160      Adjusted to redox equilibrium
      Specific Conductance (µS/cm,   5°C)  = 7627
                          Density (g/cm³)  =   1.00522
                               Volume (L)  =   1.00103
                        Viscosity (mPa s)  =   1.56280
                        Activity of water  =   0.997
                 Ionic strength (mol/kgw)  =   1.969e-01
                       Mass of water (kg)  =   1.000e+00
                 Total alkalinity (eq/kg)  =   4.540e-17
                         Temperature (°C)  =   5.00
                           Pressure (atm)  =  0.01
                  Electrical balance (eq)  =   2.963e-13
 Percent error, 100*(Cat-|An|)/(Cat+|An|)  =   0.00
                               Iterations  =   9
                                  Total H  = 1.110124e+02
                                  Total O  = 5.550622e+01

----------------------------Distribution of species----------------------------

                                               Log       Log       Log    mole V
   Species          Molality    Activity  Molality  Activity     Gamma   cm³/mol

   H+              1.495e-07   1.200e-07    -6.825    -6.921    -0.095      0.00
   OH-             2.164e-08   1.548e-08    -7.665    -7.810    -0.146     -4.99
   H2O             5.551e+01   9.967e-01     1.744    -0.001     0.000     18.02
Cl            1.312e-01
   Cl-             1.312e-01   9.496e-02    -0.882    -1.022    -0.141     17.30
   HCl             3.666e-09   4.446e-09    -8.436    -8.352     0.084     18.45
H(0)          5.027e-17
   H2              2.514e-17   2.636e-17   -16.600   -16.579     0.021     13.01
Mg            6.562e-02
   Mg+2            6.562e-02   2.331e-02    -1.183    -1.633    -0.450    -20.28
   MgOH+           1.315e-07   1.014e-07    -6.881    -6.994    -0.113     (0)  
O(0)          0.000e+00
   O2              0.000e+00   0.000e+00   -66.377   -66.357     0.020     28.29

------------------------------Saturation indices-------------------------------

  Phase               SI** log IAP   log K(278 K,   0 atm)

  H2(g)           -13.53    -16.58   -3.05  H2
  H2O(g)           -2.06     -0.00    2.06  H2O
  O2(g)           -63.64    -66.36   -2.71  O2

**For a gas, SI = log10(fugacity). Fugacity = pressure * phi / 1 atm.
  For ideal gases, phi = 1.

Reaction step 6.

Using solution 1.	
Using temperature 1.	
Using pressure 1.	
Using reaction 1.	

Reaction 1.	

	  7.890e-02 moles of the following reaction have been added:

	                 Relative
	Reactant            moles

	MgCl2                1.00000

	                 Relative
	Element             moles
	Cl                   2.00000
	Mg                   1.00000

-----------------------------Solution composition------------------------------

	Elements           Molality       Moles

	Cl                1.578e-01   1.578e-01
	Mg                7.890e-02   7.890e-02

----------------------------Description of solution----------------------------

                                       pH  =   6.893      Charge balance
                                       pe  =  -0.189      Adjusted to redox equilibrium
      Specific Conductance (µS/cm,   5°C)  = 9004
                          Density (g/cm³)  =   1.00628
                               Volume (L)  =   1.00123
                        Viscosity (mPa s)  =   1.57097
                        Activity of water  =   0.996
                 Ionic strength (mol/kgw)  =   2.367e-01
                       Mass of water (kg)  =   1.000e+00
                 Total alkalinity (eq/kg)  =   4.389e-17
                         Temperature (°C)  =   5.00
                           Pressure (atm)  =  0.01
                  Electrical balance (eq)  =   6.023e-17
 Percent error, 100*(Cat-|An|)/(Cat+|An|)  =   0.00
                               Iterations  =  14
                                  Total H  = 1.110124e+02
                                  Total O  = 5.550622e+01

----------------------------Distribution of species----------------------------

                                               Log       Log       Log    mole V
   Species          Molality    Activity  Molality  Activity     Gamma   cm³/mol

   H+              1.607e-07   1.279e-07    -6.794    -6.893    -0.099      0.00
   OH-             2.073e-08   1.452e-08    -7.683    -7.838    -0.155     -4.91
   H2O             5.551e+01   9.960e-01     1.744    -0.002     0.000     18.02
Cl            1.578e-01
   Cl-             1.578e-01   1.121e-01    -0.802    -0.951    -0.149     17.34
   HCl             4.431e-09   5.588e-09    -8.353    -8.253     0.101     18.45
H(0)          6.456e-17
   H2              3.228e-17   3.418e-17   -16.491   -16.466     0.025     13.01
Mg            7.890e-02
   Mg+2            7.890e-02   2.693e-02    -1.103    -1.570    -0.467    -20.23
   MgOH+           1.444e-07   1.099e-07    -6.841    -6.959    -0.119     (0)  
O(0)          0.000e+00
   O2              0.000e+00   0.000e+00   -66.607   -66.583     0.024     28.29

------------------------------Saturation indices-------------------------------

  Phase               SI** log IAP   log K(278 K,   0 atm)

  H2(g)           -13.42    -16.47   -3.05  H2
  H2O(g)           -2.06     -0.00    2.06  H2O
  O2(g)           -63.87    -66.58   -2.71  O2

**For a gas, SI = log10(fugacity). Fugacity = pressure * phi / 1 atm.
  For ideal gases, phi = 1.

Reaction step 7.

Using solution 1.	
Using temperature 1.	
Using pressure 1.	
Using reaction 1.	

Reaction 1.	

	  9.627e-02 moles of the following reaction have been added:

	                 Relative
	Reactant            moles

	MgCl2                1.00000

	                 Relative
	Element             moles
	Cl                   2.00000
	Mg                   1.00000

-----------------------------Solution composition------------------------------

	Elements           Molality       Moles

	Cl                1.925e-01   1.925e-01
	Mg                9.627e-02   9.627e-02

----------------------------Description of solution----------------------------

                                       pH  =   6.862      Charge balance
                                       pe  =  -0.143      Adjusted to redox equilibrium
      Specific Conductance (µS/cm,   5°C)  = 10762
                          Density (g/cm³)  =   1.00766
                               Volume (L)  =   1.00149
                        Viscosity (mPa s)  =   1.58157
                        Activity of water  =   0.995
                 Ionic strength (mol/kgw)  =   2.888e-01
                       Mass of water (kg)  =   1.000e+00
                 Total alkalinity (eq/kg)  =   2.667e-16
                         Temperature (°C)  =   5.00
                           Pressure (atm)  =  0.01
                  Electrical balance (eq)  =   1.496e-10
 Percent error, 100*(Cat-|An|)/(Cat+|An|)  =   0.00
                               Iterations  =   9
                                  Total H  = 1.110124e+02
                                  Total O  = 5.550622e+01

----------------------------Distribution of species----------------------------

                                               Log       Log       Log    mole V
   Species          Molality    Activity  Molality  Activity     Gamma   cm³/mol

   H+              1.741e-07   1.373e-07    -6.759    -6.862    -0.103      0.00
   OH-             1.974e-08   1.351e-08    -7.705    -7.869    -0.165     -4.82
   H2O             5.551e+01   9.951e-01     1.744    -0.002     0.000     18.02
Cl            1.925e-01
   Cl-             1.925e-01   1.340e-01    -0.715    -0.873    -0.158     17.38
   HCl             5.404e-09   7.172e-09    -8.267    -8.144     0.123     18.45
H(0)          5.949e-17
   H2              2.975e-17   3.190e-17   -16.527   -16.496     0.030     13.01
Mg            9.627e-02
   Mg+2            9.627e-02   3.160e-02    -1.017    -1.500    -0.484    -20.17
   MgOH+           1.598e-07   1.200e-07    -6.797    -6.921    -0.124     (0)  
O(0)          0.000e+00
   O2              0.000e+00   0.000e+00   -66.553   -66.524     0.029     28.29

------------------------------Saturation indices-------------------------------

  Phase               SI** log IAP   log K(278 K,   0 atm)

  H2(g)           -13.45    -16.50   -3.05  H2
  H2O(g)           -2.06     -0.00    2.06  H2O
  O2(g)           -63.81    -66.52   -2.71  O2

**For a gas, SI = log10(fugacity). Fugacity = pressure * phi / 1 atm.
  For ideal gases, phi = 1.

Reaction step 8.

Using solution 1.	
Using temperature 1.	
Using pressure 1.	
Using reaction 1.	

Reaction 1.	

	  1.306e-01 moles of the following reaction have been added:

	                 Relative
	Reactant            moles

	MgCl2                1.00000

	                 Relative
	Element             moles
	Cl                   2.00000
	Mg                   1.00000

-----------------------------Solution composition------------------------------

	Elements           Molality       Moles

	Cl                2.613e-01   2.613e-01
	Mg                1.306e-01   1.306e-01

----------------------------Description of solution----------------------------

                                       pH  =   6.812      Charge balance
                                       pe  =  -0.173      Adjusted to redox equilibrium
      Specific Conductance (µS/cm,   5°C)  = 14120
                          Density (g/cm³)  =   1.01039
                               Volume (L)  =   1.00203
                        Viscosity (mPa s)  =   1.60233
                        Activity of water  =   0.993
                 Ionic strength (mol/kgw)  =   3.919e-01
                       Mass of water (kg)  =   1.000e+00
                 Total alkalinity (eq/kg)  =   8.137e-17
                         Temperature (°C)  =   5.00
                           Pressure (atm)  =  0.01
                  Electrical balance (eq)  =   6.283e-12
 Percent error, 100*(Cat-|An|)/(Cat+|An|)  =   0.00
                               Iterations  =  10
                                  Total H  = 1.110124e+02
                                  Total O  = 5.550622e+01

----------------------------Distribution of species----------------------------

                                               Log       Log       Log    mole V
   Species          Molality    Activity  Molality  Activity     Gamma   cm³/mol

   H+              1.982e-07   1.541e-07    -6.703    -6.812    -0.109      0.00
   OH-             1.821e-08   1.201e-08    -7.740    -7.920    -0.181     -4.63
   H2O             5.551e+01   9.933e-01     1.744    -0.003     0.000     18.02
Cl            2.613e-01
   Cl-             2.613e-01   1.761e-01    -0.583    -0.754    -0.171     17.46
   HCl             7.212e-09   1.059e-08    -8.142    -7.975     0.167     18.45
H(0)          8.413e-17
   H2              4.206e-17   4.624e-17   -16.376   -16.335     0.041     13.01
Mg            1.306e-01
   Mg+2            1.306e-01   4.081e-02    -0.884    -1.389    -0.505    -20.06
   MgOH+           1.872e-07   1.378e-07    -6.728    -6.861    -0.133     (0)  
O(0)          0.000e+00
   O2              0.000e+00   0.000e+00   -66.887   -66.848     0.039     28.29

------------------------------Saturation indices-------------------------------

  Phase               SI** log IAP   log K(278 K,   0 atm)

  H2(g)           -13.29    -16.33   -3.05  H2
  H2O(g)           -2.06     -0.00    2.06  H2O
  O2(g)           -64.13    -66.85   -2.71  O2

**For a gas, SI = log10(fugacity). Fugacity = pressure * phi / 1 atm.
  For ideal gases, phi = 1.

Reaction step 9.

Using solution 1.	
Using temperature 1.	
Using pressure 1.	
Using reaction 1.	

Reaction 1.	

	  1.950e-01 moles of the following reaction have been added:

	                 Relative
	Reactant            moles

	MgCl2                1.00000

	                 Relative
	Element             moles
	Cl                   2.00000
	Mg                   1.00000

-----------------------------Solution composition------------------------------

	Elements           Molality       Moles

	Cl                3.900e-01   3.900e-01
	Mg                1.950e-01   1.950e-01

----------------------------Description of solution----------------------------

                                       pH  =   6.739      Charge balance
                                       pe  =   0.315      Adjusted to redox equilibrium
      Specific Conductance (µS/cm,   5°C)  = 20070
                          Density (g/cm³)  =   1.01546
                               Volume (L)  =   1.00306
                        Viscosity (mPa s)  =   1.64076
                        Activity of water  =   0.990
                 Ionic strength (mol/kgw)  =   5.850e-01
                       Mass of water (kg)  =   1.000e+00
                 Total alkalinity (eq/kg)  =   3.234e-17
                         Temperature (°C)  =   5.00
                           Pressure (atm)  =  0.01
                  Electrical balance (eq)  =   1.933e-11
 Percent error, 100*(Cat-|An|)/(Cat+|An|)  =   0.00
                               Iterations  =  21
                                  Total H  = 1.110124e+02
                                  Total O  = 5.550622e+01

----------------------------Distribution of species----------------------------

                                               Log       Log       Log    mole V
   Species          Molality    Activity  Molality  Activity     Gamma   cm³/mol

   H+              2.387e-07   1.825e-07    -6.622    -6.739    -0.117      0.00
   OH-             1.611e-08   1.011e-08    -7.793    -7.995    -0.202     -4.32
   H2O             5.551e+01   9.901e-01     1.744    -0.004     0.000     18.02
Cl            3.900e-01
   Cl-             3.900e-01   2.526e-01    -0.409    -0.598    -0.189     17.58
   HCl             1.013e-08   1.797e-08    -7.994    -7.745     0.249     18.45
H(0)          1.189e-17
   H2              5.944e-18   6.848e-18   -17.226   -17.164     0.061     13.01
Mg            1.950e-01
   Mg+2            1.950e-01   5.870e-02    -0.710    -1.231    -0.521    -19.91
   MgOH+           2.327e-07   1.669e-07    -6.633    -6.778    -0.144     (0)  
O(0)          0.000e+00
   O2              0.000e+00   0.000e+00   -65.251   -65.192     0.058     28.29

------------------------------Saturation indices-------------------------------

  Phase               SI** log IAP   log K(278 K,   0 atm)

  H2(g)           -14.12    -17.16   -3.05  H2
  H2O(g)           -2.06     -0.00    2.06  H2O
  O2(g)           -62.48    -65.19   -2.71  O2

**For a gas, SI = log10(fugacity). Fugacity = pressure * phi / 1 atm.
  For ideal gases, phi = 1.

Reaction step 10.

Using solution 1.	
Using temperature 1.	
Using pressure 1.	
Using reaction 1.	

Reaction 1.	

	  1.953e-01 moles of the following reaction have been added:

	                 Relative
	Reactant            moles

	MgCl2                1.00000

	                 Relative
	Element             moles
	Cl                   2.00000
	Mg                   1.00000

-----------------------------Solution composition------------------------------

	Elements           Molality       Moles

	Cl                3.905e-01   3.905e-01
	Mg                1.953e-01   1.953e-01

----------------------------Description of solution----------------------------

                                       pH  =   6.739      Charge balance
                                       pe  =  -0.319      Adjusted to redox equilibrium
      Specific Conductance (µS/cm,   5°C)  = 20093
                          Density (g/cm³)  =   1.01548
                               Volume (L)  =   1.00306
                        Viscosity (mPa s)  =   1.64090
                        Activity of water  =   0.990
                 Ionic strength (mol/kgw)  =   5.857e-01
                       Mass of water (kg)  =   1.000e+00
                 Total alkalinity (eq/kg)  =   1.426e-16
                         Temperature (°C)  =   5.00
                           Pressure (atm)  =  0.01
                  Electrical balance (eq)  =   2.381e-11
 Percent error, 100*(Cat-|An|)/(Cat+|An|)  =   0.00
                               Iterations  =  21
                                  Total H  = 1.110124e+02
                                  Total O  = 5.550622e+01

----------------------------Distribution of species----------------------------

                                               Log       Log       Log    mole V
   Species          Molality    Activity  Molality  Activity     Gamma   cm³/mol

   H+              2.388e-07   1.826e-07    -6.622    -6.739    -0.117      0.00
   OH-             1.610e-08   1.011e-08    -7.793    -7.995    -0.202     -4.31
   H2O             5.551e+01   9.900e-01     1.744    -0.004     0.000     18.02
Cl            3.905e-01
   Cl-             3.905e-01   2.529e-01    -0.408    -0.597    -0.189     17.58
   HCl             1.014e-08   1.801e-08    -7.994    -7.745     0.249     18.45
H(0)          2.206e-16
   H2              1.103e-16   1.271e-16   -15.957   -15.896     0.062     13.01
Mg            1.953e-01
   Mg+2            1.952e-01   5.878e-02    -0.709    -1.231    -0.521    -19.91
   MgOH+           2.329e-07   1.670e-07    -6.633    -6.777    -0.144     (0)  
O(0)          0.000e+00
   O2              0.000e+00   0.000e+00   -67.788   -67.729     0.059     28.29

------------------------------Saturation indices-------------------------------

  Phase               SI** log IAP   log K(278 K,   0 atm)

  H2(g)           -12.85    -15.90   -3.05  H2
  H2O(g)           -2.06     -0.00    2.06  H2O
  O2(g)           -65.01    -67.73   -2.71  O2

**For a gas, SI = log10(fugacity). Fugacity = pressure * phi / 1 atm.
  For ideal gases, phi = 1.

Reaction step 11.

Using solution 1.	
Using temperature 1.	
Using pressure 1.	
Using reaction 1.	

Reaction 1.	

	  2.677e-01 moles of the following reaction have been added:

	                 Relative
	Reactant            moles

	MgCl2                1.00000

	                 Relative
	Element             moles
	Cl                   2.00000
	Mg                   1.00000

-----------------------------Solution composition------------------------------

	Elements           Molality       Moles

	Cl                5.353e-01   5.353e-01
	Mg                2.677e-01   2.677e-01

----------------------------Description of solution----------------------------

                                       pH  =   6.673      Charge balance
                                       pe  =  11.627      Adjusted to redox equilibrium
      Specific Conductance (µS/cm,   5°C)  = 26375
                          Density (g/cm³)  =   1.02113
                               Volume (L)  =   1.00427
                        Viscosity (mPa s)  =   1.68379
                        Activity of water  =   0.986
                 Ionic strength (mol/kgw)  =   8.030e-01
                       Mass of water (kg)  =   1.000e+00
                 Total alkalinity (eq/kg)  =   2.583e-16
                         Temperature (°C)  =   5.00
                           Pressure (atm)  =  0.01
                  Electrical balance (eq)  =   5.591e-11
 Percent error, 100*(Cat-|An|)/(Cat+|An|)  =   0.00
                               Iterations  =  15
                                  Total H  = 1.110124e+02
                                  Total O  = 5.550622e+01

----------------------------Distribution of species----------------------------

                                               Log       Log       Log    mole V
   Species          Molality    Activity  Molality  Activity     Gamma   cm³/mol

   H+              2.814e-07   2.124e-07    -6.551    -6.673    -0.122      0.00
   OH-             1.434e-08   8.655e-09    -7.844    -8.063    -0.219     -3.97
   H2O             5.551e+01   9.863e-01     1.744    -0.006     0.000     18.02
Cl            5.353e-01
   Cl-             5.353e-01   3.366e-01    -0.271    -0.473    -0.202     17.70
   HCl             1.269e-08   2.789e-08    -7.896    -7.555     0.342     18.45
H(0)          3.622e-40
   H2              1.811e-40   2.199e-40   -39.742   -39.658     0.084     13.01
Mg            2.677e-01
   Mg+2            2.677e-01   8.086e-02    -0.572    -1.092    -0.520    -19.77
   MgOH+           2.798e-07   1.967e-07    -6.553    -6.706    -0.153     (0)  
O(0)          1.028e-20
   O2              5.140e-21   6.184e-21   -20.289   -20.209     0.080     28.29

------------------------------Saturation indices-------------------------------

  Phase               SI** log IAP   log K(278 K,   0 atm)

  H2(g)           -36.61    -39.66   -3.05  H2
  H2O(g)           -2.06     -0.01    2.06  H2O
  O2(g)           -17.49    -20.21   -2.71  O2

**For a gas, SI = log10(fugacity). Fugacity = pressure * phi / 1 atm.
  For ideal gases, phi = 1.

Reaction step 12.

Using solution 1.	
Using temperature 1.	
Using pressure 1.	
Using reaction 1.	

Reaction 1.	

	  2.828e-01 moles of the following reaction have been added:

	                 Relative
	Reactant            moles

	MgCl2                1.00000

	                 Relative
	Element             moles
	Cl                   2.00000
	Mg                   1.00000

-----------------------------Solution composition------------------------------

	Elements           Molality       Moles

	Cl                5.656e-01   5.656e-01
	Mg                2.828e-01   2.828e-01

----------------------------Description of solution----------------------------

                                       pH  =   6.660      Charge balance
                                       pe  =   0.075      Adjusted to redox equilibrium
      Specific Conductance (µS/cm,   5°C)  = 27638
                          Density (g/cm³)  =   1.02230
                               Volume (L)  =   1.00453
                        Viscosity (mPa s)  =   1.69271
                        Activity of water  =   0.986
                 Ionic strength (mol/kgw)  =   8.483e-01
                       Mass of water (kg)  =   1.000e+00
                 Total alkalinity (eq/kg)  =   2.826e-17
                         Temperature (°C)  =   5.00
                           Pressure (atm)  =  0.01
                  Electrical balance (eq)  =   9.933e-17
 Percent error, 100*(Cat-|An|)/(Cat+|An|)  =   0.00
                               Iterations  =  46
                                  Total H  = 1.110124e+02
                                  Total O  = 5.550622e+01

----------------------------Distribution of species----------------------------

                                               Log       Log       Log    mole V
   Species          Molality    Activity  Molality  Activity     Gamma   cm³/mol

   H+              2.902e-07   2.185e-07    -6.537    -6.660    -0.123      0.00
   OH-             1.402e-08   8.406e-09    -7.853    -8.075    -0.222     -3.91
   H2O             5.551e+01   9.856e-01     1.744    -0.006     0.000     18.02
Cl            5.656e-01
   Cl-             5.656e-01   3.539e-01    -0.248    -0.451    -0.204     17.72
   HCl             1.314e-08   3.016e-08    -7.882    -7.520     0.361     18.45
H(0)          4.822e-17
   H2              2.411e-17   2.960e-17   -16.618   -16.529     0.089     13.01
Mg            2.828e-01
   Mg+2            2.828e-01   8.581e-02    -0.549    -1.066    -0.518    -19.74
   MgOH+           2.893e-07   2.027e-07    -6.539    -6.693    -0.154     (0)  
O(0)          0.000e+00
   O2              0.000e+00   0.000e+00   -66.552   -66.467     0.085     28.29

------------------------------Saturation indices-------------------------------

  Phase               SI** log IAP   log K(278 K,   0 atm)

  H2(g)           -13.48    -16.53   -3.05  H2
  H2O(g)           -2.06     -0.01    2.06  H2O
  O2(g)           -63.75    -66.47   -2.71  O2

**For a gas, SI = log10(fugacity). Fugacity = pressure * phi / 1 atm.
  For ideal gases, phi = 1.

Reaction step 13.

Using solution 1.	
Using temperature 1.	
Using pressure 1.	
Using reaction 1.	

Reaction 1.	

	  3.749e-01 moles of the following reaction have been added:

	                 Relative
	Reactant            moles

	MgCl2                1.00000

	                 Relative
	Element             moles
	Cl                   2.00000
	Mg                   1.00000

-----------------------------Solution composition------------------------------

	Elements           Molality       Moles

	Cl                7.497e-01   7.497e-01
	Mg                3.749e-01   3.749e-01

----------------------------Description of solution----------------------------

                                       pH  =   6.592      Charge balance
                                       pe  =  11.482      Adjusted to redox equilibrium
      Specific Conductance (µS/cm,   5°C)  = 35030
                          Density (g/cm³)  =   1.02939
                               Volume (L)  =   1.00612
                        Viscosity (mPa s)  =   1.74705
                        Activity of water  =   0.981
                 Ionic strength (mol/kgw)  =   1.125e+00
                       Mass of water (kg)  =   1.000e+00
                 Total alkalinity (eq/kg)  =   1.358e-16
                         Temperature (°C)  =   5.00
                           Pressure (atm)  =  0.01
                  Electrical balance (eq)  =   1.436e-11
 Percent error, 100*(Cat-|An|)/(Cat+|An|)  =   0.00
                               Iterations  =  31
                                  Total H  = 1.110124e+02
                                  Total O  = 5.550622e+01

----------------------------Distribution of species----------------------------

                                               Log       Log       Log    mole V
   Species          Molality    Activity  Molality  Activity     Gamma   cm³/mol

   H+              3.435e-07   2.560e-07    -6.464    -6.592    -0.128      0.00
   OH-             1.234e-08   7.142e-09    -7.909    -8.146    -0.237     -3.50
   H2O             5.551e+01   9.809e-01     1.744    -0.008     0.000     18.02
Cl            7.497e-01
   Cl-             7.497e-01   4.585e-01    -0.125    -0.339    -0.214     17.85
   HCl             1.521e-08   4.578e-08    -7.818    -7.339     0.479     18.45
H(0)          9.500e-40
   H2              4.750e-40   6.234e-40   -39.323   -39.205     0.118     13.01
Mg            3.749e-01
   Mg+2            3.748e-01   1.189e-01    -0.426    -0.925    -0.499    -19.59
   MgOH+           3.464e-07   2.387e-07    -6.460    -6.622    -0.162     (0)  
O(0)          1.175e-21
   O2              5.873e-22   7.609e-22   -21.231   -21.119     0.112     28.29

------------------------------Saturation indices-------------------------------

  Phase               SI** log IAP   log K(278 K,   0 atm)

  H2(g)           -36.16    -39.21   -3.05  H2
  H2O(g)           -2.07     -0.01    2.06  H2O
  O2(g)           -18.40    -21.12   -2.71  O2

**For a gas, SI = log10(fugacity). Fugacity = pressure * phi / 1 atm.
  For ideal gases, phi = 1.

Reaction step 14.

Using solution 1.	
Using temperature 1.	
Using pressure 1.	
Using reaction 1.	

Reaction 1.	

	  4.081e-01 moles of the following reaction have been added:

	                 Relative
	Reactant            moles

	MgCl2                1.00000

	                 Relative
	Element             moles
	Cl                   2.00000
	Mg                   1.00000

-----------------------------Solution composition------------------------------

	Elements           Molality       Moles

	Cl                8.162e-01   8.162e-01
	Mg                4.081e-01   4.081e-01

----------------------------Description of solution----------------------------

                                       pH  =   6.569      Charge balance
                                       pe  =  12.691      Adjusted to redox equilibrium
      Specific Conductance (µS/cm,   5°C)  = 37580
                          Density (g/cm³)  =   1.03193
                               Volume (L)  =   1.00672
                        Viscosity (mPa s)  =   1.76670
                        Activity of water  =   0.979
                 Ionic strength (mol/kgw)  =   1.224e+00
                       Mass of water (kg)  =   1.000e+00
                 Total alkalinity (eq/kg)  =   4.183e-17
                         Temperature (°C)  =   5.00
                           Pressure (atm)  =  0.01
                  Electrical balance (eq)  =   4.763e-15
 Percent error, 100*(Cat-|An|)/(Cat+|An|)  =   0.00
                               Iterations  =  52
                                  Total H  = 1.110124e+02
                                  Total O  = 5.550622e+01

----------------------------Distribution of species----------------------------

                                               Log       Log       Log    mole V
   Species          Molality    Activity  Molality  Activity     Gamma   cm³/mol

   H+              3.630e-07   2.697e-07    -6.440    -6.569    -0.129      0.00
   OH-             1.181e-08   6.767e-09    -7.928    -8.170    -0.242     -3.35
   H2O             5.551e+01   9.792e-01     1.744    -0.009     0.000     18.02
Cl            8.162e-01
   Cl-             8.162e-01   4.961e-01    -0.088    -0.304    -0.216     17.90
   HCl             1.572e-08   5.219e-08    -7.804    -7.282     0.521     18.45
H(0)          0.000e+00
   H2              0.000e+00   0.000e+00   -41.705   -41.577     0.129     13.01
Mg            4.081e-01
   Mg+2            4.081e-01   1.323e-01    -0.389    -0.878    -0.489    -19.54
   MgOH+           3.669e-07   2.517e-07    -6.435    -6.599    -0.164     (0)  
O(0)          6.329e-17
   O2              3.165e-17   4.195e-17   -16.500   -16.377     0.122     28.29

------------------------------Saturation indices-------------------------------

  Phase               SI** log IAP   log K(278 K,   0 atm)

  H2(g)           -38.53    -41.58   -3.05  H2
  H2O(g)           -2.07     -0.01    2.06  H2O
  O2(g)           -13.66    -16.38   -2.71  O2

**For a gas, SI = log10(fugacity). Fugacity = pressure * phi / 1 atm.
  For ideal gases, phi = 1.

Reaction step 15.

Using solution 1.	
Using temperature 1.	
Using pressure 1.	
Using reaction 1.	

Reaction 1.	

	  5.248e-01 moles of the following reaction have been added:

	                 Relative
	Reactant            moles

	MgCl2                1.00000

	                 Relative
	Element             moles
	Cl                   2.00000
	Mg                   1.00000

-----------------------------Solution composition------------------------------

	Elements           Molality       Moles

	Cl                1.050e+00   1.050e+00
	Mg                5.248e-01   5.248e-01

----------------------------Description of solution----------------------------

                                       pH  =   6.496      Charge balance
                                       pe  =  12.372      Adjusted to redox equilibrium
      Specific Conductance (µS/cm,   5°C)  = 46068
                          Density (g/cm³)  =   1.04076
                               Volume (L)  =   1.00885
                        Viscosity (mPa s)  =   1.83600
                        Activity of water  =   0.973
                 Ionic strength (mol/kgw)  =   1.574e+00
                       Mass of water (kg)  =   1.000e+00
                 Total alkalinity (eq/kg)  =   1.902e-16
                         Temperature (°C)  =   5.00
                           Pressure (atm)  =  0.01
                  Electrical balance (eq)  =   3.164e-12
 Percent error, 100*(Cat-|An|)/(Cat+|An|)  =   0.00
                               Iterations  =  58
                                  Total H  = 1.110124e+02
                                  Total O  = 5.550622e+01

----------------------------Distribution of species----------------------------

                                               Log       Log       Log    mole V
   Species          Molality    Activity  Molality  Activity     Gamma   cm³/mol

   H+              4.335e-07   3.194e-07    -6.363    -6.496    -0.133      0.00
   OH-             1.023e-08   5.680e-09    -7.990    -8.246    -0.255     -2.85
   H2O             5.551e+01   9.732e-01     1.744    -0.012     0.000     18.02
Cl            1.050e+00
   Cl-             1.050e+00   6.279e-01     0.021    -0.202    -0.223     18.04
   HCl             1.672e-08   7.821e-08    -7.777    -7.107     0.670     18.45
H(0)          0.000e+00
   H2              0.000e+00   0.000e+00   -40.958   -40.793     0.165     13.01
Mg            5.248e-01
   Mg+2            5.248e-01   1.864e-01    -0.280    -0.730    -0.449    -19.38
   MgOH+           4.400e-07   2.976e-07    -6.357    -6.526    -0.170     (0)  
O(0)          1.563e-18
   O2              7.815e-19   1.123e-18   -18.107   -17.950     0.157     28.29

------------------------------Saturation indices-------------------------------

  Phase               SI** log IAP   log K(278 K,   0 atm)

  H2(g)           -37.75    -40.79   -3.05  H2
  H2O(g)           -2.07     -0.01    2.06  H2O
  O2(g)           -15.23    -17.95   -2.71  O2

**For a gas, SI = log10(fugacity). Fugacity = pressure * phi / 1 atm.
  For ideal gases, phi = 1.

Reaction step 16.

Using solution 1.	
Using temperature 1.	
Using pressure 1.	
Using reaction 1.	

Reaction 1.	

	  5.519e-01 moles of the following reaction have been added:

	                 Relative
	Reactant            moles

	MgCl2                1.00000

	                 Relative
	Element             moles
	Cl                   2.00000
	Mg                   1.00000

-----------------------------Solution composition------------------------------

	Elements           Molality       Moles

	Cl                1.104e+00   1.104e+00
	Mg                5.519e-01   5.519e-01

----------------------------Description of solution----------------------------

                                       pH  =   6.480      Charge balance
                                       pe  =   1.588      Adjusted to redox equilibrium
      Specific Conductance (µS/cm,   5°C)  = 47950
                          Density (g/cm³)  =   1.04280
                               Volume (L)  =   1.00936
                        Viscosity (mPa s)  =   1.85227
                        Activity of water  =   0.972
                 Ionic strength (mol/kgw)  =   1.656e+00
                       Mass of water (kg)  =   1.000e+00
                 Total alkalinity (eq/kg)  =   7.213e-15
                         Temperature (°C)  =   5.00
                           Pressure (atm)  =  0.01
                  Electrical balance (eq)  =   5.318e-10
 Percent error, 100*(Cat-|An|)/(Cat+|An|)  =   0.00
                               Iterations  =  22
                                  Total H  = 1.110124e+02
                                  Total O  = 5.550622e+01

----------------------------Distribution of species----------------------------

                                               Log       Log       Log    mole V
   Species          Molality    Activity  Molality  Activity     Gamma   cm³/mol

   H+              4.505e-07   3.313e-07    -6.346    -6.480    -0.133      0.00
   OH-             9.902e-09   5.467e-09    -8.004    -8.262    -0.258     -2.74
   H2O             5.551e+01   9.719e-01     1.744    -0.012     0.000     18.02
Cl            1.104e+00
   Cl-             1.104e+00   6.587e-01     0.043    -0.181    -0.224     18.07
   HCl             1.680e-08   8.512e-08    -7.775    -7.070     0.705     18.45
H(0)          8.601e-20
   H2              4.301e-20   6.418e-20   -19.366   -19.193     0.174     13.01
Mg            5.519e-01
   Mg+2            5.519e-01   2.008e-01    -0.258    -0.697    -0.439    -19.34
   MgOH+           4.574e-07   3.086e-07    -6.340    -6.511    -0.171     (0)  
O(0)          0.000e+00
   O2              0.000e+00   0.000e+00   -61.317   -61.152     0.166     28.29

------------------------------Saturation indices-------------------------------

  Phase               SI** log IAP   log K(278 K,   0 atm)

  H2(g)           -16.15    -19.19   -3.05  H2
  H2O(g)           -2.07     -0.01    2.06  H2O
  O2(g)           -58.44    -61.15   -2.71  O2

**For a gas, SI = log10(fugacity). Fugacity = pressure * phi / 1 atm.
  For ideal gases, phi = 1.

Reaction step 17.

Using solution 1.	
Using temperature 1.	
Using pressure 1.	
Using reaction 1.	

Reaction 1.	

	  6.340e-01 moles of the following reaction have been added:

	                 Relative
	Reactant            moles

	MgCl2                1.00000

	                 Relative
	Element             moles
	Cl                   2.00000
	Mg                   1.00000

-----------------------------Solution composition------------------------------

	Elements           Molality       Moles

	Cl                1.268e+00   1.268e+00
	Mg                6.340e-01   6.340e-01

----------------------------Description of solution----------------------------

                                       pH  =   6.433      Charge balance
                                       pe  =   0.758      Adjusted to redox equilibrium
      Specific Conductance (µS/cm,   5°C)  = 53432
                          Density (g/cm³)  =   1.04892
                               Volume (L)  =   1.01092
                        Viscosity (mPa s)  =   1.90182
                        Activity of water  =   0.968
                 Ionic strength (mol/kgw)  =   1.902e+00
                       Mass of water (kg)  =   1.000e+00
                 Total alkalinity (eq/kg)  =  -1.166e-16
                         Temperature (°C)  =   5.00
                           Pressure (atm)  =  0.01
                  Electrical balance (eq)  =   6.418e-14
 Percent error, 100*(Cat-|An|)/(Cat+|An|)  =   0.00
                               Iterations  =  10
                                  Total H  = 1.110124e+02
                                  Total O  = 5.550622e+01

----------------------------Distribution of species----------------------------

                                               Log       Log       Log    mole V
   Species          Molality    Activity  Molality  Activity     Gamma   cm³/mol

   H+              5.035e-07   3.687e-07    -6.298    -6.433    -0.135      0.00
   OH-             9.008e-09   4.891e-09    -8.045    -8.311    -0.265     -2.40
   H2O             5.551e+01   9.677e-01     1.744    -0.014     0.000     18.02
Cl            1.268e+00
   Cl-             1.268e+00   7.520e-01     0.103    -0.124    -0.227     18.16
   HCl             1.677e-08   1.081e-07    -7.776    -6.966     0.810     18.45
H(0)          4.581e-18
   H2              2.290e-18   3.628e-18   -17.640   -17.440     0.200     13.01
Mg            6.340e-01
   Mg+2            6.340e-01   2.491e-01    -0.198    -0.604    -0.406    -19.23
   MgOH+           5.113e-07   3.425e-07    -6.291    -6.465    -0.174     (0)  
O(0)          0.000e+00
   O2              0.000e+00   0.000e+00   -64.850   -64.660     0.190     28.29

------------------------------Saturation indices-------------------------------

  Phase               SI** log IAP   log K(278 K,   0 atm)

  H2(g)           -14.40    -17.44   -3.05  H2
  H2O(g)           -2.07     -0.01    2.06  H2O
  O2(g)           -61.95    -64.66   -2.71  O2

**For a gas, SI = log10(fugacity). Fugacity = pressure * phi / 1 atm.
  For ideal gases, phi = 1.

Reaction step 18.

WARNING: Maximum iterations exceeded, 100

WARNING: Numerical method failed with this set of convergence parameters.

WARNING: Trying smaller step size, pe step size 10, 5 ... 

Using solution 1.	
Using temperature 1.	
Using pressure 1.	
Using reaction 1.	

Reaction 1.	

	  7.653e-01 moles of the following reaction have been added:

	                 Relative
	Reactant            moles

	MgCl2                1.00000

	                 Relative
	Element             moles
	Cl                   2.00000
	Mg                   1.00000

-----------------------------Solution composition------------------------------

	Elements           Molality       Moles

	Cl                1.531e+00   1.531e+00
	Mg                7.654e-01   7.653e-01

----------------------------Description of solution----------------------------

                                       pH  =   6.364      Charge balance
                                       pe  =   0.001      Adjusted to redox equilibrium
      Specific Conductance (µS/cm,   5°C)  = 61589
                          Density (g/cm³)  =   1.05859
                               Volume (L)  =   1.01350
                        Viscosity (mPa s)  =   1.98273
                        Activity of water  =   0.961
                 Ionic strength (mol/kgw)  =   2.296e+00
                       Mass of water (kg)  =   1.000e+00
                 Total alkalinity (eq/kg)  =   8.546e-17
                         Temperature (°C)  =   5.00
                           Pressure (atm)  =  0.01
                  Electrical balance (eq)  =  -8.804e-15
 Percent error, 100*(Cat-|An|)/(Cat+|An|)  =  -0.00
                               Iterations  =  64 (165 overall)
                                  Total H  = 1.110124e+02
                                  Total O  = 5.550622e+01

----------------------------Distribution of species----------------------------

                                               Log       Log       Log    mole V
   Species          Molality    Activity  Molality  Activity     Gamma   cm³/mol

   H+              5.942e-07   4.327e-07    -6.226    -6.364    -0.138      0.00
   OH-             7.794e-09   4.140e-09    -8.108    -8.383    -0.275     -1.86
   H2O             5.551e+01   9.610e-01     1.744    -0.017     0.000     18.02
Cl            1.531e+00
   Cl-             1.531e+00   9.025e-01     0.185    -0.045    -0.229     18.29
   HCl             1.605e-08   1.523e-07    -7.794    -6.817     0.977     18.45
H(0)          1.876e-16
   H2              9.379e-17   1.634e-16   -16.028   -15.787     0.241     13.01
Mg            7.654e-01
   Mg+2            7.653e-01   3.435e-01    -0.116    -0.464    -0.348    -19.06
   MgOH+           6.024e-07   3.997e-07    -6.220    -6.398    -0.178     (0)  
O(0)          0.000e+00
   O2              0.000e+00   0.000e+00   -68.203   -67.973     0.230     28.29

------------------------------Saturation indices-------------------------------

  Phase               SI** log IAP   log K(278 K,   0 atm)

  H2(g)           -12.74    -15.79   -3.05  H2
  H2O(g)           -2.07     -0.02    2.06  H2O
  O2(g)           -65.26    -67.97   -2.71  O2

**For a gas, SI = log10(fugacity). Fugacity = pressure * phi / 1 atm.
  For ideal gases, phi = 1.

Reaction step 19.

Using solution 1.	
Using temperature 1.	
Using pressure 1.	
Using reaction 1.	

Reaction 1.	

	  9.985e-01 moles of the following reaction have been added:

	                 Relative
	Reactant            moles

	MgCl2                1.00000

	                 Relative
	Element             moles
	Cl                   2.00000
	Mg                   1.00000

-----------------------------Solution composition------------------------------

	Elements           Molality       Moles

	Cl                1.997e+00   1.997e+00
	Mg                9.985e-01   9.985e-01

----------------------------Description of solution----------------------------

                                       pH  =   6.251      Charge balance
                                       pe  =  12.885      Adjusted to redox equilibrium
      Specific Conductance (µS/cm,   5°C)  = 74340
                          Density (g/cm³)  =   1.07539
                               Volume (L)  =   1.01830
                        Viscosity (mPa s)  =   2.13397
                        Activity of water  =   0.949
                 Ionic strength (mol/kgw)  =   2.996e+00
                       Mass of water (kg)  =   1.000e+00
                 Total alkalinity (eq/kg)  =   7.434e-18
                         Temperature (°C)  =   5.00
                           Pressure (atm)  =  0.01
                  Electrical balance (eq)  =  -6.730e-14
 Percent error, 100*(Cat-|An|)/(Cat+|An|)  =  -0.00
                               Iterations  =  47
                                  Total H  = 1.110124e+02
                                  Total O  = 5.550622e+01

----------------------------Distribution of species----------------------------

                                               Log       Log       Log    mole V
   Species          Molality    Activity  Molality  Activity     Gamma   cm³/mol

   H+              7.764e-07   5.612e-07    -6.110    -6.251    -0.141      0.00
   OH-             6.117e-09   3.152e-09    -8.213    -8.501    -0.288     -0.93
   H2O             5.551e+01   9.491e-01     1.744    -0.023     0.000     18.02
Cl            1.997e+00
   Cl-             1.997e+00   1.176e+00     0.300     0.070    -0.230     18.51
   HCl             1.367e-08   2.574e-07    -7.864    -6.589     1.275     18.45
H(0)          0.000e+00
   H2              0.000e+00   0.000e+00   -41.644   -41.329     0.315     13.01
Mg            9.985e-01
   Mg+2            9.985e-01   5.799e-01    -0.001    -0.237    -0.236    -18.78
   MgOH+           7.840e-07   5.138e-07    -6.106    -6.289    -0.184     (0)  
O(0)          1.264e-17
   O2              6.321e-18   1.260e-17   -17.199   -16.900     0.300     28.29

------------------------------Saturation indices-------------------------------

  Phase               SI** log IAP   log K(278 K,   0 atm)

  H2(g)           -38.28    -41.33   -3.05  H2
  H2O(g)           -2.08     -0.02    2.06  H2O
  O2(g)           -14.18    -16.90   -2.71  O2

**For a gas, SI = log10(fugacity). Fugacity = pressure * phi / 1 atm.
  For ideal gases, phi = 1.

------------------
End of simulation.
------------------

------------------------------------
Reading input data for simulation 3.
------------------------------------

	USE solution 1
	REACTION_TEMPERATURE
	 15.000000
	REACTION_PRESSURE
	 0.000000
	REACTION
	 MgCl2 1
	0 0.032780 0.040040 0.041370 0.048510 0.050000 0.065620 0.078900 0.090080 0.096270 0.100000 0.130640 0.160140 0.195250 0.267670 0.374850 0.408110 0.500000 0.524760 0.551930 0.634040 0.765350 0.974100 0.998510 1.000000 2.000000
	USER_GRAPH
	 -headings 15.oC
	10 data 0, 14.370000, 14.514898, 14.882486, 14.993847, 15.091290, 15.570000, 15.531797, 15.303904, 15.422103, 16.130229, 16.420000, 16.160142, 16.375653, 17.290000, 17.313619, 17.516298, 18.268941, 18.540000, 18.108905, 18.409982, 19.120000, 19.525234, 20.100000, 20.119242, 22.459403,
	20 dim d(26)
	30 read d(1), d(2), d(3), d(4), d(5), d(6), d(7), d(8), d(9), d(10), d(11), d(12), d(13), d(14), d(15), d(16), d(17), d(18), d(19), d(20), d(21), d(22), d(23), d(24), d(25), d(26),
	40 if step_no = 1 then put(rho, 10)
	50 if step_no > 1 then Vmol = (1e3 + tot("Mg") * 95.218) / (tot("Mg") * rho) - 1e3 / (tot("Mg") * get(10))
	60 if step_no = 1 then dif = 0 else dif = Vmol - d(step_no)
	62 if step_no = 1 then goto 90
	70 plot_xy tot("Mg"), d(step_no), line_w = 0, color = Red #aph_x tot("Mg") # dif, str$(tc), str$(pressure), str$(step_no + get(1))
	80 plot_xy tot("Mg"), Vmol, symbol = None, color = Red #step_no = 264 then put(step_no + get(1), 1)
	90 end
	END
-----------------------------------------
Beginning of batch-reaction calculations.
-----------------------------------------

Reaction step 1.

Using solution 1.	
Using temperature 1.	
Using pressure 1.	
Using reaction 1.	

Reaction 1.	

	  0.000e+00 moles of the following reaction have been added:

	                 Relative
	Reactant            moles

	MgCl2                1.00000

	                 Relative
	Element             moles
	Cl                   2.00000
	Mg                   1.00000

-----------------------------Solution composition------------------------------

	Elements           Molality       Moles

	Pure water     

----------------------------Description of solution----------------------------

                                       pH  =   7.172      Charge balance
                                       pe  =  -0.315      Adjusted to redox equilibrium
      Specific Conductance (µS/cm,  15°C)  = 0
                          Density (g/cm³)  =   0.99905
                               Volume (L)  =   1.00095
                        Viscosity (mPa s)  =   1.13763
                        Activity of water  =   1.000
                 Ionic strength (mol/kgw)  =   6.737e-08
                       Mass of water (kg)  =   1.000e+00
                 Total alkalinity (eq/kg)  =   9.842e-17
                         Temperature (°C)  =  15.00
                           Pressure (atm)  =  0.02
                  Electrical balance (eq)  =  -9.842e-17
 Percent error, 100*(Cat-|An|)/(Cat+|An|)  =  -0.00
                               Iterations  =   7
                                  Total H  = 1.110124e+02
                                  Total O  = 5.550622e+01

----------------------------Distribution of species----------------------------

                                               Log       Log       Log    mole V
   Species          Molality    Activity  Molality  Activity     Gamma   cm³/mol

   OH-             6.737e-08   6.735e-08    -7.172    -7.172    -0.000     -4.66
   H+              6.737e-08   6.735e-08    -7.172    -7.172    -0.000      0.00
   H2O             5.551e+01   1.000e+00     1.744    -0.000     0.000     18.03
H(0)          3.042e-17
   H2              1.521e-17   1.521e-17   -16.818   -16.818     0.000     14.15
O(0)          0.000e+00
   O2              0.000e+00   0.000e+00   -62.169   -62.169     0.000     29.51

------------------------------Saturation indices-------------------------------

  Phase               SI** log IAP   log K(288 K,   0 atm)

  H2(g)           -13.74    -16.82   -3.08  H2
  H2O(g)           -1.77     -0.00    1.77  H2O
  O2(g)           -59.36    -62.17   -2.81  O2

**For a gas, SI = log10(fugacity). Fugacity = pressure * phi / 1 atm.
  For ideal gases, phi = 1.

Reaction step 2.

Using solution 1.	
Using temperature 1.	
Using pressure 1.	
Using reaction 1.	

Reaction 1.	

	  3.278e-02 moles of the following reaction have been added:

	                 Relative
	Reactant            moles

	MgCl2                1.00000

	                 Relative
	Element             moles
	Cl                   2.00000
	Mg                   1.00000

-----------------------------Solution composition------------------------------

	Elements           Molality       Moles

	Cl                6.556e-02   6.556e-02
	Mg                3.278e-02   3.278e-02

----------------------------Description of solution----------------------------

                                       pH  =   6.806      Charge balance
                                       pe  =   0.020      Adjusted to redox equilibrium
      Specific Conductance (µS/cm,  15°C)  = 5291
                          Density (g/cm³)  =   1.00168
                               Volume (L)  =   1.00144
                        Viscosity (mPa s)  =   1.15816
                        Activity of water  =   0.998
                 Ionic strength (mol/kgw)  =   9.834e-02
                       Mass of water (kg)  =   1.000e+00
                 Total alkalinity (eq/kg)  =   3.382e-17
                         Temperature (°C)  =  15.00
                           Pressure (atm)  =  0.02
                  Electrical balance (eq)  =   1.548e-15
 Percent error, 100*(Cat-|An|)/(Cat+|An|)  =   0.00
                               Iterations  =   9
                                  Total H  = 1.110124e+02
                                  Total O  = 5.550622e+01

----------------------------Distribution of species----------------------------

                                               Log       Log       Log    mole V
   Species          Molality    Activity  Molality  Activity     Gamma   cm³/mol

   H+              1.888e-07   1.564e-07    -6.724    -6.806    -0.082      0.00
   OH-             3.781e-08   2.896e-08    -7.422    -7.538    -0.116     -4.28
   H2O             5.551e+01   9.983e-01     1.744    -0.001     0.000     18.03
Cl            6.556e-02
   Cl-             6.556e-02   5.054e-02    -1.183    -1.296    -0.113     17.92
   HCl             2.631e-09   2.897e-09    -8.580    -8.538     0.042     19.56
H(0)          3.414e-17
   H2              1.707e-17   1.748e-17   -16.768   -16.757     0.010     14.15
Mg            3.278e-02
   Mg+2            3.278e-02   1.358e-02    -1.484    -1.867    -0.383    -20.83
   MgOH+           1.536e-07   1.236e-07    -6.813    -6.908    -0.094     (0)  
O(0)          0.000e+00
   O2              0.000e+00   0.000e+00   -62.301   -62.292     0.010     29.51

------------------------------Saturation indices-------------------------------

  Phase               SI** log IAP   log K(288 K,   0 atm)

  H2(g)           -13.68    -16.76   -3.08  H2
  H2O(g)           -1.77     -0.00    1.77  H2O
  O2(g)           -59.48    -62.29   -2.81  O2

**For a gas, SI = log10(fugacity). Fugacity = pressure * phi / 1 atm.
  For ideal gases, phi = 1.

Reaction step 3.

Using solution 1.	
Using temperature 1.	
Using pressure 1.	
Using reaction 1.	

Reaction 1.	

	  4.004e-02 moles of the following reaction have been added:

	                 Relative
	Reactant            moles

	MgCl2                1.00000

	                 Relative
	Element             moles
	Cl                   2.00000
	Mg                   1.00000

-----------------------------Solution composition------------------------------

	Elements           Molality       Moles

	Cl                8.008e-02   8.008e-02
	Mg                4.004e-02   4.004e-02

----------------------------Description of solution----------------------------

                                       pH  =   6.779      Charge balance
                                       pe  =   0.050      Adjusted to redox equilibrium
      Specific Conductance (µS/cm,  15°C)  = 6351
                          Density (g/cm³)  =   1.00226
                               Volume (L)  =   1.00155
                        Viscosity (mPa s)  =   1.16218
                        Activity of water  =   0.998
                 Ionic strength (mol/kgw)  =   1.201e-01
                       Mass of water (kg)  =   1.000e+00
                 Total alkalinity (eq/kg)  =   2.974e-17
                         Temperature (°C)  =  15.00
                           Pressure (atm)  =  0.02
                  Electrical balance (eq)  =   1.155e-14
 Percent error, 100*(Cat-|An|)/(Cat+|An|)  =   0.00
                               Iterations  =   9
                                  Total H  = 1.110124e+02
                                  Total O  = 5.550622e+01

----------------------------Distribution of species----------------------------

                                               Log       Log       Log    mole V
   Species          Molality    Activity  Molality  Activity     Gamma   cm³/mol

   H+              2.029e-07   1.664e-07    -6.693    -6.779    -0.086      0.00
   OH-             3.624e-08   2.721e-08    -7.441    -7.565    -0.125     -4.23
   H2O             5.551e+01   9.980e-01     1.744    -0.001     0.000     18.03
Cl            8.008e-02
   Cl-             8.008e-02   6.058e-02    -1.096    -1.218    -0.121     17.95
   HCl             3.285e-09   3.695e-09    -8.483    -8.432     0.051     19.56
H(0)          3.350e-17
   H2              1.675e-17   1.725e-17   -16.776   -16.763     0.013     14.15
Mg            4.004e-02
   Mg+2            4.004e-02   1.578e-02    -1.398    -1.802    -0.404    -20.77
   MgOH+           1.699e-07   1.349e-07    -6.770    -6.870    -0.100     (0)  
O(0)          0.000e+00
   O2              0.000e+00   0.000e+00   -62.292   -62.280     0.012     29.51

------------------------------Saturation indices-------------------------------

  Phase               SI** log IAP   log K(288 K,   0 atm)

  H2(g)           -13.69    -16.76   -3.08  H2
  H2O(g)           -1.77     -0.00    1.77  H2O
  O2(g)           -59.47    -62.28   -2.81  O2

**For a gas, SI = log10(fugacity). Fugacity = pressure * phi / 1 atm.
  For ideal gases, phi = 1.

Reaction step 4.

Using solution 1.	
Using temperature 1.	
Using pressure 1.	
Using reaction 1.	

Reaction 1.	

	  4.137e-02 moles of the following reaction have been added:

	                 Relative
	Reactant            moles

	MgCl2                1.00000

	                 Relative
	Element             moles
	Cl                   2.00000
	Mg                   1.00000

-----------------------------Solution composition------------------------------

	Elements           Molality       Moles

	Cl                8.274e-02   8.274e-02
	Mg                4.137e-02   4.137e-02

----------------------------Description of solution----------------------------

                                       pH  =   6.774      Charge balance
                                       pe  =   0.096      Adjusted to redox equilibrium
      Specific Conductance (µS/cm,  15°C)  = 6543
                          Density (g/cm³)  =   1.00236
                               Volume (L)  =   1.00157
                        Viscosity (mPa s)  =   1.16291
                        Activity of water  =   0.998
                 Ionic strength (mol/kgw)  =   1.241e-01
                       Mass of water (kg)  =   1.000e+00
                 Total alkalinity (eq/kg)  =   2.662e-17
                         Temperature (°C)  =  15.00
                           Pressure (atm)  =  0.02
                  Electrical balance (eq)  =   1.248e-14
 Percent error, 100*(Cat-|An|)/(Cat+|An|)  =   0.00
                               Iterations  =   9
                                  Total H  = 1.110124e+02
                                  Total O  = 5.550622e+01

----------------------------Distribution of species----------------------------

                                               Log       Log       Log    mole V
   Species          Molality    Activity  Molality  Activity     Gamma   cm³/mol

   H+              2.053e-07   1.681e-07    -6.688    -6.774    -0.087      0.00
   OH-             3.599e-08   2.692e-08    -7.444    -7.570    -0.126     -4.22
   H2O             5.551e+01   9.979e-01     1.744    -0.001     0.000     18.03
Cl            8.274e-02
   Cl-             8.274e-02   6.240e-02    -1.082    -1.205    -0.123     17.95
   HCl             3.405e-09   3.846e-09    -8.468    -8.415     0.053     19.56
H(0)          2.764e-17
   H2              1.382e-17   1.424e-17   -16.860   -16.847     0.013     14.15
Mg            4.137e-02
   Mg+2            4.137e-02   1.617e-02    -1.383    -1.791    -0.408    -20.76
   MgOH+           1.727e-07   1.369e-07    -6.763    -6.864    -0.101     (0)  
O(0)          0.000e+00
   O2              0.000e+00   0.000e+00   -62.126   -62.114     0.012     29.51

------------------------------Saturation indices-------------------------------

  Phase               SI** log IAP   log K(288 K,   0 atm)

  H2(g)           -13.77    -16.85   -3.08  H2
  H2O(g)           -1.77     -0.00    1.77  H2O
  O2(g)           -59.30    -62.11   -2.81  O2

**For a gas, SI = log10(fugacity). Fugacity = pressure * phi / 1 atm.
  For ideal gases, phi = 1.

Reaction step 5.

Using solution 1.	
Using temperature 1.	
Using pressure 1.	
Using reaction 1.	

Reaction 1.	

	  4.851e-02 moles of the following reaction have been added:

	                 Relative
	Reactant            moles

	MgCl2                1.00000

	                 Relative
	Element             moles
	Cl                   2.00000
	Mg                   1.00000

-----------------------------Solution composition------------------------------

	Elements           Molality       Moles

	Cl                9.702e-02   9.702e-02
	Mg                4.851e-02   4.851e-02

----------------------------Description of solution----------------------------

                                       pH  =   6.752      Charge balance
                                       pe  =   0.128      Adjusted to redox equilibrium
      Specific Conductance (µS/cm,  15°C)  = 7560
                          Density (g/cm³)  =   1.00293
                               Volume (L)  =   1.00169
                        Viscosity (mPa s)  =   1.16682
                        Activity of water  =   0.998
                 Ionic strength (mol/kgw)  =   1.455e-01
                       Mass of water (kg)  =   1.000e+00
                 Total alkalinity (eq/kg)  =   2.606e-17
                         Temperature (°C)  =  15.00
                           Pressure (atm)  =  0.02
                  Electrical balance (eq)  =   4.167e-14
 Percent error, 100*(Cat-|An|)/(Cat+|An|)  =   0.00
                               Iterations  =   9
                                  Total H  = 1.110124e+02
                                  Total O  = 5.550622e+01

----------------------------Distribution of species----------------------------

                                               Log       Log       Log    mole V
   Species          Molality    Activity  Molality  Activity     Gamma   cm³/mol

   H+              2.177e-07   1.769e-07    -6.662    -6.752    -0.090      0.00
   OH-             3.476e-08   2.558e-08    -7.459    -7.592    -0.133     -4.17
   H2O             5.551e+01   9.975e-01     1.744    -0.001     0.000     18.03
Cl            9.702e-02
   Cl-             9.702e-02   7.204e-02    -1.013    -1.142    -0.129     17.98
   HCl             4.051e-09   4.672e-09    -8.392    -8.331     0.062     19.56
H(0)          2.626e-17
   H2              1.313e-17   1.360e-17   -16.882   -16.867     0.015     14.15
Mg            4.851e-02
   Mg+2            4.851e-02   1.823e-02    -1.314    -1.739    -0.425    -20.72
   MgOH+           1.870e-07   1.466e-07    -6.728    -6.834    -0.106     (0)  
O(0)          0.000e+00
   O2              0.000e+00   0.000e+00   -62.089   -62.074     0.015     29.51

------------------------------Saturation indices-------------------------------

  Phase               SI** log IAP   log K(288 K,   0 atm)

  H2(g)           -13.79    -16.87   -3.08  H2
  H2O(g)           -1.77     -0.00    1.77  H2O
  O2(g)           -59.26    -62.07   -2.81  O2

**For a gas, SI = log10(fugacity). Fugacity = pressure * phi / 1 atm.
  For ideal gases, phi = 1.

Reaction step 6.

Using solution 1.	
Using temperature 1.	
Using pressure 1.	
Using reaction 1.	

Reaction 1.	

[...]
   MgOH+           4.072e-04   2.357e-04    -3.390    -3.628    -0.237     (0)  
O(0)          1.536e-15
   O2              7.680e-16   1.523e-14   -15.115   -13.817     1.297     33.72

------------------------------Saturation indices-------------------------------

  Phase               SI** log IAP   log K(368 K,   1 atm)

  H2(g)           -27.27    -30.37   -3.10  H2
  H2O(g)           -0.19     -0.11    0.08  H2O
  O2(g)           -10.70    -13.82   -3.11  O2

**For a gas, SI = log10(fugacity). Fugacity = pressure * phi / 1 atm.
  For ideal gases, phi = 1.

------------------
End of simulation.
------------------

-------------------------------------
Reading input data for simulation 10.
-------------------------------------

	USE solution 1
	REACTION_TEMPERATURE
	 99.000000
	REACTION_PRESSURE
	 0.000000
	REACTION
	 MgCl2 1
	0 0.108440 0.197110 0.281260 0.388420 0.527750
	USER_GRAPH
	 -headings 99.oC
	10 data 0, 10.840000, 11.780000, 12.490000, 12.910000, 13.630000,
	20 dim d(6)
	30 read d(1), d(2), d(3), d(4), d(5), d(6),
	40 if step_no = 1 then put(rho, 10)
	50 if step_no > 1 then Vmol = (1e3 + tot("Mg") * 95.218) / (tot("Mg") * rho) - 1e3 / (tot("Mg") * get(10))
	60 if step_no = 1 then dif = 0 else dif = Vmol - d(step_no)
	62 if step_no = 1 then goto 90
	70 plot_xy tot("Mg"), d(step_no), line_w = 0, color = Blue #aph_x tot("Mg") # dif, str$(tc), str$(pressure), str$(step_no + get(1))
	80 plot_xy tot("Mg"), Vmol, symbol = None, color = Blue #step_no = 6 then put(step_no + get(1), 1)
	90 end
	END
-----------------------------------------
Beginning of batch-reaction calculations.
-----------------------------------------

Reaction step 1.

Using solution 1.	
Using temperature 1.	
Using pressure 1.	
Using reaction 1.	

Reaction 1.	

	  0.000e+00 moles of the following reaction have been added:

	                 Relative
	Reactant            moles

	MgCl2                1.00000

	                 Relative
	Element             moles
	Cl                   2.00000
	Mg                   1.00000

-----------------------------Solution composition------------------------------

	Elements           Molality       Moles

	Pure water     

----------------------------Description of solution----------------------------

                                       pH  =   6.127      Charge balance
                                       pe  =   0.579      Adjusted to redox equilibrium
      Specific Conductance (µS/cm,  99°C)  = 0
                          Density (g/cm³)  =   0.95906
                               Volume (L)  =   1.04269
                        Viscosity (mPa s)  =   0.28456
                        Activity of water  =   1.000
                 Ionic strength (mol/kgw)  =   7.471e-07
                       Mass of water (kg)  =   1.000e+00
                 Total alkalinity (eq/kg)  =  -2.455e-17
                         Temperature (°C)  =  99.00
                           Pressure (atm)  =  0.96
                  Electrical balance (eq)  =   2.455e-17
 Percent error, 100*(Cat-|An|)/(Cat+|An|)  =   0.00
                               Iterations  =   9
                                  Total H  = 1.110124e+02
                                  Total O  = 5.550622e+01

----------------------------Distribution of species----------------------------

                                               Log       Log       Log    mole V
   Species          Molality    Activity  Molality  Activity     Gamma   cm³/mol

   H+              7.471e-07   7.463e-07    -6.127    -6.127    -0.001      0.00
   OH-             7.471e-07   7.463e-07    -6.127    -6.127    -0.001     -5.88
   H2O             5.551e+01   1.000e+00     1.744    -0.000     0.000     18.79
H(0)          3.041e-17
   H2              1.520e-17   1.520e-17   -16.818   -16.818     0.000     18.28
O(0)          2.330e-40
   O2              1.165e-40   1.165e-40   -39.934   -39.934     0.000     33.86

------------------------------Saturation indices-------------------------------

  Phase               SI** log IAP   log K(372 K,   1 atm)

  H2(g)           -13.73    -16.82   -3.09  H2
  H2O(g)           -0.02     -0.00    0.02  H2O
  O2(g)           -36.82    -39.93   -3.11  O2

**For a gas, SI = log10(fugacity). Fugacity = pressure * phi / 1 atm.
  For ideal gases, phi = 1.

Reaction step 2.

Using solution 1.	
Using temperature 1.	
Using pressure 1.	
Using reaction 1.	

Reaction 1.	

	  1.084e-01 moles of the following reaction have been added:

	                 Relative
	Reactant            moles

	MgCl2                1.00000

	                 Relative
	Element             moles
	Cl                   2.00000
	Mg                   1.00000

-----------------------------Solution composition------------------------------

	Elements           Molality       Moles

	Cl                2.169e-01   2.169e-01
	Mg                1.084e-01   1.084e-01

----------------------------Description of solution----------------------------

                                       pH  =   5.322      Charge balance
                                       pe  =   1.267      Adjusted to redox equilibrium
      Specific Conductance (µS/cm,  99°C)  = 50447
                          Density (g/cm³)  =   0.96783
                               Volume (L)  =   1.04391
                        Viscosity (mPa s)  =   0.30194
                        Activity of water  =   0.994
                 Ionic strength (mol/kgw)  =   3.253e-01
                       Mass of water (kg)  =   1.000e+00
                 Total alkalinity (eq/kg)  =   3.953e-12
                         Temperature (°C)  =  99.00
                           Pressure (atm)  =  0.96
                  Electrical balance (eq)  =   5.516e-10
 Percent error, 100*(Cat-|An|)/(Cat+|An|)  =   0.00
                               Iterations  =  13
                                  Total H  = 1.110124e+02
                                  Total O  = 5.550622e+01

----------------------------Distribution of species----------------------------

                                               Log       Log       Log    mole V
   Species          Molality    Activity  Molality  Activity     Gamma   cm³/mol

   H+              6.339e-06   4.766e-06    -5.198    -5.322    -0.124      0.00
   OH-             1.854e-07   1.162e-07    -6.732    -6.935    -0.203     -4.39
   H2O             5.551e+01   9.945e-01     1.744    -0.002     0.000     18.79
Cl            2.169e-01
   Cl-             2.169e-01   1.386e-01    -0.664    -0.858    -0.194     17.25
   HCl             1.046e-07   1.439e-07    -6.981    -6.842     0.138     23.02
H(0)          4.808e-17
   H2              2.404e-17   2.601e-17   -16.619   -16.585     0.034     18.28
Mg            1.084e-01
   Mg+2            1.084e-01   2.764e-02    -0.965    -1.559    -0.594    -23.24
   MgOH+           6.258e-06   4.425e-06    -5.204    -5.354    -0.151     (0)  
O(0)          0.000e+00
   O2              0.000e+00   0.000e+00   -40.437   -40.405     0.033     33.86

------------------------------Saturation indices-------------------------------

  Phase               SI** log IAP   log K(372 K,   1 atm)

  H2(g)           -13.50    -16.58   -3.09  H2
  H2O(g)           -0.02     -0.00    0.02  H2O
  O2(g)           -37.29    -40.40   -3.11  O2

**For a gas, SI = log10(fugacity). Fugacity = pressure * phi / 1 atm.
  For ideal gases, phi = 1.

Reaction step 3.

Using solution 1.	
Using temperature 1.	
Using pressure 1.	
Using reaction 1.	

Reaction 1.	

	  1.971e-01 moles of the following reaction have been added:

	                 Relative
	Reactant            moles

	MgCl2                1.00000

	                 Relative
	Element             moles
	Cl                   2.00000
	Mg                   1.00000

-----------------------------Solution composition------------------------------

	Elements           Molality       Moles

	Cl                3.942e-01   3.942e-01
	Mg                1.971e-01   1.971e-01

----------------------------Description of solution----------------------------

                                       pH  =   5.213      Charge balance
                                       pe  =   1.264      Adjusted to redox equilibrium
      Specific Conductance (µS/cm,  99°C)  = 84866
                          Density (g/cm³)  =   0.97479
                               Volume (L)  =   1.04512
                        Viscosity (mPa s)  =   0.31434
                        Activity of water  =   0.990
                 Ionic strength (mol/kgw)  =   5.913e-01
                       Mass of water (kg)  =   1.000e+00
                 Total alkalinity (eq/kg)  =   6.037e-12
                         Temperature (°C)  =  99.00
                           Pressure (atm)  =  0.95
                  Electrical balance (eq)  =   8.287e-10
 Percent error, 100*(Cat-|An|)/(Cat+|An|)  =   0.00
                               Iterations  =  28
                                  Total H  = 1.110124e+02
                                  Total O  = 5.550622e+01

----------------------------Distribution of species----------------------------

                                               Log       Log       Log    mole V
   Species          Molality    Activity  Molality  Activity     Gamma   cm³/mol

   H+              8.382e-06   6.118e-06    -5.077    -5.213    -0.137      0.00
   OH-             1.565e-07   9.011e-08    -6.806    -7.045    -0.240     -3.71
   H2O             5.551e+01   9.899e-01     1.744    -0.004     0.000     18.79
Cl            3.942e-01
   Cl-             3.942e-01   2.346e-01    -0.404    -0.630    -0.225     17.60
   HCl             1.751e-07   3.125e-07    -6.757    -6.505     0.252     23.02
H(0)          7.554e-17
   H2              3.777e-17   4.357e-17   -16.423   -16.361     0.062     18.28
Mg            1.971e-01
   Mg+2            1.971e-01   4.576e-02    -0.705    -1.340    -0.634    -22.87
   MgOH+           8.400e-06   5.681e-06    -5.076    -5.246    -0.170     (0)  
O(0)          0.000e+00
   O2              0.000e+00   0.000e+00   -40.916   -40.857     0.059     33.86

------------------------------Saturation indices-------------------------------

  Phase               SI** log IAP   log K(372 K,   1 atm)

  H2(g)           -13.27    -16.36   -3.09  H2
  H2O(g)           -0.02     -0.00    0.02  H2O
  O2(g)           -37.74    -40.86   -3.11  O2

**For a gas, SI = log10(fugacity). Fugacity = pressure * phi / 1 atm.
  For ideal gases, phi = 1.

Reaction step 4.

Using solution 1.	
Using temperature 1.	
Using pressure 1.	
Using reaction 1.	

Reaction 1.	

	  2.813e-01 moles of the following reaction have been added:

	                 Relative
	Reactant            moles

	MgCl2                1.00000

	                 Relative
	Element             moles
	Cl                   2.00000
	Mg                   1.00000

-----------------------------Solution composition------------------------------

	Elements           Molality       Moles

	Cl                5.625e-01   5.625e-01
	Mg                2.813e-01   2.813e-01

----------------------------Description of solution----------------------------

                                       pH  =   5.138      Charge balance
                                       pe  =   1.508      Adjusted to redox equilibrium
      Specific Conductance (µS/cm,  99°C)  = 114720
                          Density (g/cm³)  =   0.98129
                               Volume (L)  =   1.04636
                        Viscosity (mPa s)  =   0.32586
                        Activity of water  =   0.986
                 Ionic strength (mol/kgw)  =   8.438e-01
                       Mass of water (kg)  =   1.000e+00
                 Total alkalinity (eq/kg)  =   3.369e-16
                         Temperature (°C)  =  99.00
                           Pressure (atm)  =  0.95
                  Electrical balance (eq)  =   9.092e-15
 Percent error, 100*(Cat-|An|)/(Cat+|An|)  =   0.00
                               Iterations  =  20
                                  Total H  = 1.110124e+02
                                  Total O  = 5.550622e+01

----------------------------Distribution of species----------------------------

                                               Log       Log       Log    mole V
   Species          Molality    Activity  Molality  Activity     Gamma   cm³/mol

   H+              1.013e-05   7.277e-06    -4.994    -5.138    -0.144      0.00
   OH-             1.379e-07   7.544e-08    -6.861    -7.122    -0.262     -3.13
   H2O             5.551e+01   9.857e-01     1.744    -0.006     0.000     18.79
Cl            5.625e-01
   Cl-             5.625e-01   3.218e-01    -0.250    -0.492    -0.243     17.85
   HCl             2.230e-07   5.098e-07    -6.652    -6.293     0.359     23.02
H(0)          3.258e-17
   H2              1.629e-17   1.998e-17   -16.788   -16.699     0.089     18.28
Mg            2.813e-01
   Mg+2            2.812e-01   6.482e-02    -0.551    -1.188    -0.637    -22.63
   MgOH+           1.021e-05   6.737e-06    -4.991    -5.172    -0.181     (0)  
O(0)          0.000e+00
   O2              0.000e+00   0.000e+00   -40.268   -40.183     0.084     33.86

------------------------------Saturation indices-------------------------------

  Phase               SI** log IAP   log K(372 K,   1 atm)

  H2(g)           -13.61    -16.70   -3.09  H2
  H2O(g)           -0.03     -0.01    0.02  H2O
  O2(g)           -37.07    -40.18   -3.11  O2

**For a gas, SI = log10(fugacity). Fugacity = pressure * phi / 1 atm.
  For ideal gases, phi = 1.

Reaction step 5.

Using solution 1.	
Using temperature 1.	
Using pressure 1.	
Using reaction 1.	

Reaction 1.	

	  3.884e-01 moles of the following reaction have been added:

	                 Relative
	Reactant            moles

	MgCl2                1.00000

	                 Relative
	Element             moles
	Cl                   2.00000
	Mg                   1.00000

-----------------------------Solution composition------------------------------

	Elements           Molality       Moles

	Cl                7.768e-01   7.768e-01
	Mg                3.884e-01   3.884e-01

----------------------------Description of solution----------------------------

                                       pH  =   5.059      Charge balance
                                       pe  =   7.654      Adjusted to redox equilibrium
      Specific Conductance (µS/cm,  99°C)  = 149660
                          Density (g/cm³)  =   0.98944
                               Volume (L)  =   1.04805
                        Viscosity (mPa s)  =   0.34035
                        Activity of water  =   0.980
                 Ionic strength (mol/kgw)  =   1.165e+00
                       Mass of water (kg)  =   1.000e+00
                 Total alkalinity (eq/kg)  =   2.165e-14
                         Temperature (°C)  =  99.00
                           Pressure (atm)  =  0.95
                  Electrical balance (eq)  =   8.363e-12
 Percent error, 100*(Cat-|An|)/(Cat+|An|)  =   0.00
                               Iterations  =  10
                                  Total H  = 1.110124e+02
                                  Total O  = 5.550622e+01

----------------------------Distribution of species----------------------------

                                               Log       Log       Log    mole V
   Species          Molality    Activity  Molality  Activity     Gamma   cm³/mol

   H+              1.231e-05   8.725e-06    -4.910    -5.059    -0.149      0.00
   OH-             1.197e-07   6.257e-08    -6.922    -7.204    -0.282     -2.46
   H2O             5.551e+01   9.802e-01     1.744    -0.009     0.000     18.79
Cl            7.768e-01
   Cl-             7.768e-01   4.306e-01    -0.110    -0.366    -0.256     18.11
   HCl             2.611e-07   8.179e-07    -6.583    -6.087     0.496     23.02
H(0)          2.216e-29
   H2              1.108e-29   1.468e-29   -28.955   -28.833     0.122     18.28
Mg            3.884e-01
   Mg+2            3.884e-01   9.324e-02    -0.411    -1.030    -0.620    -22.41
   MgOH+           1.245e-05   8.038e-06    -4.905    -5.095    -0.190     (0)  
O(0)          1.835e-16
   O2              9.176e-17   1.200e-16   -16.037   -15.921     0.117     33.86

------------------------------Saturation indices-------------------------------

  Phase               SI** log IAP   log K(372 K,   1 atm)

  H2(g)           -25.75    -28.83   -3.09  H2
  H2O(g)           -0.03     -0.01    0.02  H2O
  O2(g)           -12.81    -15.92   -3.11  O2

**For a gas, SI = log10(fugacity). Fugacity = pressure * phi / 1 atm.
  For ideal gases, phi = 1.

Reaction step 6.

Using solution 1.	
Using temperature 1.	
Using pressure 1.	
Using reaction 1.	

Reaction 1.	

	  5.278e-01 moles of the following reaction have been added:

	                 Relative
	Reactant            moles

	MgCl2                1.00000

	                 Relative
	Element             moles
	Cl                   2.00000
	Mg                   1.00000

-----------------------------Solution composition------------------------------

	Elements           Molality       Moles

	Cl                1.056e+00   1.056e+00
	Mg                5.278e-01   5.278e-01

----------------------------Description of solution----------------------------

                                       pH  =   4.972      Charge balance
                                       pe  =   1.224      Adjusted to redox equilibrium
      Specific Conductance (µS/cm,  99°C)  = 190836
                          Density (g/cm³)  =   0.99987
                               Volume (L)  =   1.05038
                        Viscosity (mPa s)  =   0.35909
                        Activity of water  =   0.973
                 Ionic strength (mol/kgw)  =   1.583e+00
                       Mass of water (kg)  =   1.000e+00
                 Total alkalinity (eq/kg)  =   1.463e-12
                         Temperature (°C)  =  99.00
                           Pressure (atm)  =  0.94
                  Electrical balance (eq)  =   3.832e-10
 Percent error, 100*(Cat-|An|)/(Cat+|An|)  =   0.00
                               Iterations  =  13
                                  Total H  = 1.110124e+02
                                  Total O  = 5.550622e+01

----------------------------Distribution of species----------------------------

                                               Log       Log       Log    mole V
   Species          Molality    Activity  Molality  Activity     Gamma   cm³/mol

   H+              1.523e-05   1.067e-05    -4.817    -4.972    -0.155      0.00
   OH-             1.015e-07   5.080e-08    -6.994    -7.294    -0.300     -1.65
   H2O             5.551e+01   9.731e-01     1.744    -0.012     0.000     18.79
Cl            1.056e+00
   Cl-             1.056e+00   5.707e-01     0.023    -0.244    -0.267     18.38
   HCl             2.809e-07   1.326e-06    -6.551    -5.878     0.674     23.02
H(0)          2.175e-16
   H2              1.088e-16   1.595e-16   -15.964   -15.797     0.166     18.28
Mg            5.278e-01
   Mg+2            5.277e-01   1.394e-01    -0.278    -0.856    -0.578    -22.18
   MgOH+           1.541e-05   9.759e-06    -4.812    -5.011    -0.198     (0)  
O(0)          0.000e+00
   O2              0.000e+00   0.000e+00   -42.157   -41.999     0.158     33.86

------------------------------Saturation indices-------------------------------

  Phase               SI** log IAP   log K(372 K,   1 atm)

  H2(g)           -12.71    -15.80   -3.09  H2
  H2O(g)           -0.03     -0.01    0.02  H2O
  O2(g)           -38.88    -42.00   -3.11  O2

**For a gas, SI = log10(fugacity). Fugacity = pressure * phi / 1 atm.
  For ideal gases, phi = 1.

------------------
End of simulation.
------------------

-------------------------------------
Reading input data for simulation 11.
-------------------------------------

