WARNING: Database file from DATABASE keyword is used; command line argument ignored.
   Input file: Vm_NaCl_sol
  Output file: Vm_NaCl_sol.out
Database file: ../database/phreeqc.dat

------------------
Reading data base.
------------------

	SOLUTION_MASTER_SPECIES
	SOLUTION_SPECIES
	PHASES
	GAS_BINARY_PARAMETERS
	EXCHANGE_MASTER_SPECIES
	EXCHANGE_SPECIES
	SURFACE_MASTER_SPECIES
	SURFACE_SPECIES
	MEAN_GAMMAS
	RATES
	END
------------------------------------
Reading input data for simulation 1.
------------------------------------

	DATABASE ../database/phreeqc.dat
	SELECTED_OUTPUT 101
	    file                 Vm_NaCl_sol_101.sel
	USER_PUNCH 101
	    headings Mu SC
	    start
	10 PUNCH STR_F$(MU, 20, 12)
	20 PUNCH STR_F$(SC, 20, 10)
	    end
	SOLUTION 1
	 pH 7 charge
	END
-------------------------------------------
Beginning of initial solution calculations.
-------------------------------------------

Initial solution 1.	

-----------------------------Solution composition------------------------------

	Elements           Molality       Moles

	Pure water     

----------------------------Description of solution----------------------------

                                       pH  =   6.997      Charge balance
                                       pe  =   4.000    
      Specific Conductance (µS/cm,  25°C)  = 0
                          Density (g/cm³)  =   0.99704
                               Volume (L)  =   1.00297
                        Viscosity (mPa s)  =   0.89002
                        Activity of water  =   1.000
                 Ionic strength (mol/kgw)  =   1.006e-07
                       Mass of water (kg)  =   1.000e+00
                 Total alkalinity (eq/kg)  =   3.040e-17
                         Temperature (°C)  =  25.00
                  Electrical balance (eq)  =  -3.040e-17
 Percent error, 100*(Cat-|An|)/(Cat+|An|)  =  -0.00
                               Iterations  =   2
                                  Total H  = 1.110124e+02
                                  Total O  = 5.550622e+01

----------------------------Distribution of species----------------------------

                                               Log       Log       Log    mole V
   Species          Molality    Activity  Molality  Activity     Gamma   cm³/mol

   OH-             1.006e-07   1.006e-07    -6.997    -6.997    -0.000     -4.14
   H+              1.006e-07   1.006e-07    -6.997    -6.997    -0.000      0.00
   H2O             5.551e+01   1.000e+00     1.744    -0.000     0.000     18.07
H(0)          1.433e-25
   H2              7.166e-26   7.166e-26   -25.145   -25.145     0.000     14.99
O(0)          0.000e+00
   O2              0.000e+00   0.000e+00   -42.073   -42.073     0.000     30.40

------------------------------Saturation indices-------------------------------

  Phase               SI** log IAP   log K(298 K,   1 atm)

  H2(g)           -22.05    -25.14   -3.10  H2
  H2O(g)           -1.50     -0.00    1.50  H2O
  O2(g)           -39.18    -42.07   -2.89  O2

**For a gas, SI = log10(fugacity). Fugacity = pressure * phi / 1 atm.
  For ideal gases, phi = 1.

------------------
End of simulation.
------------------

------------------------------------
Reading input data for simulation 2.
------------------------------------

	USE solution 1
	REACTION_TEMPERATURE
	 5.000000
	REACTION_PRESSURE
	 1.000000
	REACTION
	 NaCl 1
	0 0.068450 0.093400 0.094850 0.100000 0.124260 0.161465 0.166300 0.198490 0.200000 0.257240 0.320000 0.333120 0.356409 0.475759 0.483190 0.500000 0.501200 0.501900 0.507860 0.655630 0.684443 0.724670 0.787500 0.800000 0.841150 0.947100 0.963232 0.994700 0.999200 1.001200 1.200000 1.261000 1.499860 1.501800 1.782400 1.950000 1.965000 2.003400 2.251700 2.473300 2.762500 2.951400 2.983600 3.487100 3.944700 4.447300 4.930300 5.385900 5.951800
	USER_GRAPH
	-headings 5oC
	10 data 0, 14.657906, 14.741411, 14.585688, 15.114606, 14.823821, 14.922183, 14.697092, 14.830463, 15.279405, 15.131269, 15.429920, 15.283700, 15.322325, 15.540895, 15.552742, 15.696611, 15.518762, 15.551367, 15.595391, 15.833944, 15.899870, 15.911696, 15.993571, 16.095803, 16.115112, 16.266771, 16.289291, 16.333898, 16.313042, 16.302879, 16.602808, 16.695204, 16.930814, 16.986947, 17.308670, 17.726759, 17.508545, 17.539335, 17.790072, 17.999293, 18.252674, 18.420887, 18.436035, 18.829280, 19.147293, 19.461856, 19.738854, 19.975462, 20.245315,
	20 dim d(50)
	30 read d(1), d(2), d(3), d(4), d(5), d(6), d(7), d(8), d(9), d(10), d(11), d(12), d(13), d(14), d(15), d(16), d(17), d(18), d(19), d(20), d(21), d(22), d(23), d(24), d(25), d(26), d(27), d(28), d(29), d(30), d(31), d(32), d(33), d(34), d(35), d(36), d(37), d(38), d(39), d(40), d(41), d(42), d(43), d(44), d(45), d(46), d(47), d(48), d(49), d(50),
	40 if step_no = 1 then put(rho, 10)
	50 if step_no > 1 then Vmol = (1e3 + tot("Cl") * 58.4428) / (tot("Cl") * rho) - 1e3 / (tot("Cl") * get(10))
	60 if step_no = 1 then dif = 0 else dif = Vmol - d(step_no)
	62 if step_no = 1 then goto 90
	70 plot_xy tot("Na"), d(step_no), line_w = 0, color = Yellow #aph_x tot("Na") # dif, str$(tc), str$(pressure), str$(step_no + get(1))
	80 plot_xy tot("Na"), Vmol, symbol = None, color = Yellow #step_no = 264 then put(step_no + get(1), 1)
	90 end
	END
-----------------------------------------
Beginning of batch-reaction calculations.
-----------------------------------------

Reaction step 1.

Using solution 1.	
Using temperature 1.	
Using pressure 1.	
Using reaction 1.	

Reaction 1.	

	  0.000e+00 moles of the following reaction have been added:

	                 Relative
	Reactant            moles

	NaCl                 1.00000

	                 Relative
	Element             moles
	Cl                   1.00000
	Na                   1.00000

-----------------------------Solution composition------------------------------

	Elements           Molality       Moles

	Pure water     

----------------------------Description of solution----------------------------

                                       pH  =   7.365      Charge balance
                                       pe  =  -0.484      Adjusted to redox equilibrium
      Specific Conductance (µS/cm,   5°C)  = 0
                          Density (g/cm³)  =   0.99996
                               Volume (L)  =   1.00004
                        Viscosity (mPa s)  =   1.51818
                        Activity of water  =   1.000
                 Ionic strength (mol/kgw)  =   4.318e-08
                       Mass of water (kg)  =   1.000e+00
                 Total alkalinity (eq/kg)  =   3.041e-17
                         Temperature (°C)  =   5.00
                  Electrical balance (eq)  =  -3.041e-17
 Percent error, 100*(Cat-|An|)/(Cat+|An|)  =  -0.00
                               Iterations  =   8
                                  Total H  = 1.110124e+02
                                  Total O  = 5.550622e+01

----------------------------Distribution of species----------------------------

                                               Log       Log       Log    mole V
   Species          Molality    Activity  Molality  Activity     Gamma   cm³/mol

   OH-             4.318e-08   4.317e-08    -7.365    -7.365    -0.000     -5.54
   H+              4.318e-08   4.317e-08    -7.365    -7.365    -0.000      0.00
   H2O             5.551e+01   1.000e+00     1.744    -0.000     0.000     18.02
H(0)          3.040e-17
   H2              1.520e-17   1.520e-17   -16.818   -16.818     0.000     13.02
O(0)          0.000e+00
   O2              0.000e+00   0.000e+00   -65.876   -65.876     0.000     28.29

------------------------------Saturation indices-------------------------------

  Phase               SI** log IAP   log K(278 K,   1 atm)

  H2(g)           -13.77    -16.82   -3.05  H2
  H2O(g)           -2.06     -0.00    2.06  H2O
  O2(g)           -63.16    -65.88   -2.71  O2

**For a gas, SI = log10(fugacity). Fugacity = pressure * phi / 1 atm.
  For ideal gases, phi = 1.

Reaction step 2.

Using solution 1.	
Using temperature 1.	
Using pressure 1.	
Using reaction 1.	

Reaction 1.	

	  6.845e-02 moles of the following reaction have been added:

	                 Relative
	Reactant            moles

	NaCl                 1.00000

	                 Relative
	Element             moles
	Cl                   1.00000
	Na                   1.00000

-----------------------------Solution composition------------------------------

	Elements           Molality       Moles

	Cl                6.845e-02   6.845e-02
	Na                6.845e-02   6.845e-02

----------------------------Description of solution----------------------------

                                       pH  =   7.356      Charge balance
                                       pe  =  -0.526      Adjusted to redox equilibrium
      Specific Conductance (µS/cm,   5°C)  = 4588
                          Density (g/cm³)  =   1.00297
                               Volume (L)  =   1.00103
                        Viscosity (mPa s)  =   1.52624
                        Activity of water  =   0.998
                 Ionic strength (mol/kgw)  =   6.845e-02
                       Mass of water (kg)  =   1.000e+00
                 Total alkalinity (eq/kg)  =   3.441e-17
                         Temperature (°C)  =   5.00
                  Electrical balance (eq)  =  -6.888e-17
 Percent error, 100*(Cat-|An|)/(Cat+|An|)  =  -0.00
                               Iterations  =   8
                                  Total H  = 1.110124e+02
                                  Total O  = 5.550622e+01

----------------------------Distribution of species----------------------------

                                               Log       Log       Log    mole V
   Species          Molality    Activity  Molality  Activity     Gamma   cm³/mol

   OH-             5.306e-08   4.218e-08    -7.275    -7.375    -0.100     -5.26
   H+              5.218e-08   4.408e-08    -7.283    -7.356    -0.073      0.00
   H2O             5.551e+01   9.977e-01     1.744    -0.001     0.000     18.02
Cl            6.845e-02
   Cl-             6.845e-02   5.467e-02    -1.165    -1.262    -0.098     17.15
   HCl             8.790e-10   9.400e-10    -9.056    -9.027     0.029     18.45
H(0)          3.775e-17
   H2              1.888e-17   1.919e-17   -16.724   -16.717     0.007     13.02
Na            6.845e-02
   Na+             6.845e-02   5.559e-02    -1.165    -1.255    -0.090     -2.60
O(0)          0.000e+00
   O2              0.000e+00   0.000e+00   -66.087   -66.081     0.007     28.29

------------------------------Saturation indices-------------------------------

  Phase               SI** log IAP   log K(278 K,   1 atm)

  H2(g)           -13.67    -16.72   -3.05  H2
  H2O(g)           -2.06     -0.00    2.06  H2O
  Halite           -4.07     -2.52    1.55  NaCl
  O2(g)           -63.37    -66.08   -2.71  O2

**For a gas, SI = log10(fugacity). Fugacity = pressure * phi / 1 atm.
  For ideal gases, phi = 1.

Reaction step 3.

Using solution 1.	
Using temperature 1.	
Using pressure 1.	
Using reaction 1.	

Reaction 1.	

	  9.340e-02 moles of the following reaction have been added:

	                 Relative
	Reactant            moles

	NaCl                 1.00000

	                 Relative
	Element             moles
	Cl                   1.00000
	Na                   1.00000

-----------------------------Solution composition------------------------------

	Elements           Molality       Moles

	Cl                9.340e-02   9.340e-02
	Na                9.340e-02   9.340e-02

----------------------------Description of solution----------------------------

                                       pH  =   7.354      Charge balance
                                       pe  =  -0.520      Adjusted to redox equilibrium
      Specific Conductance (µS/cm,   5°C)  = 6151
                          Density (g/cm³)  =   1.00405
                               Volume (L)  =   1.00140
                        Viscosity (mPa s)  =   1.52882
                        Activity of water  =   0.997
                 Ionic strength (mol/kgw)  =   9.340e-02
                       Mass of water (kg)  =   1.000e+00
                 Total alkalinity (eq/kg)  =   3.671e-17
                         Temperature (°C)  =   5.00
                  Electrical balance (eq)  =  -1.728e-16
 Percent error, 100*(Cat-|An|)/(Cat+|An|)  =  -0.00
                               Iterations  =   8
                                  Total H  = 1.110124e+02
                                  Total O  = 5.550622e+01

----------------------------Distribution of species----------------------------

                                               Log       Log       Log    mole V
   Species          Molality    Activity  Molality  Activity     Gamma   cm³/mol

   OH-             5.433e-08   4.197e-08    -7.265    -7.377    -0.112     -5.20
   H+              5.318e-08   4.427e-08    -7.274    -7.354    -0.080      0.00
   H2O             5.551e+01   9.968e-01     1.744    -0.001     0.000     18.02
Cl            9.340e-02
   Cl-             9.340e-02   7.260e-02    -1.030    -1.139    -0.109     17.19
   HCl             1.144e-09   1.253e-09    -8.942    -8.902     0.040     18.45
H(0)          3.674e-17
   H2              1.837e-17   1.879e-17   -16.736   -16.726     0.010     13.02
Na            9.340e-02
   Na+             9.340e-02   7.423e-02    -1.030    -1.129    -0.100     -2.53
O(0)          0.000e+00
   O2              0.000e+00   0.000e+00   -66.072   -66.063     0.009     28.29

------------------------------Saturation indices-------------------------------

  Phase               SI** log IAP   log K(278 K,   1 atm)

  H2(g)           -13.68    -16.73   -3.05  H2
  H2O(g)           -2.06     -0.00    2.06  H2O
  Halite           -3.82     -2.27    1.55  NaCl
  O2(g)           -63.35    -66.06   -2.71  O2

**For a gas, SI = log10(fugacity). Fugacity = pressure * phi / 1 atm.
  For ideal gases, phi = 1.

Reaction step 4.

Using solution 1.	
Using temperature 1.	
Using pressure 1.	
Using reaction 1.	

Reaction 1.	

	  9.485e-02 moles of the following reaction have been added:

	                 Relative
	Reactant            moles

	NaCl                 1.00000

	                 Relative
	Element             moles
	Cl                   1.00000
	Na                   1.00000

-----------------------------Solution composition------------------------------

	Elements           Molality       Moles

	Cl                9.485e-02   9.485e-02
	Na                9.485e-02   9.485e-02

----------------------------Description of solution----------------------------

                                       pH  =   7.354      Charge balance
                                       pe  =  -0.489      Adjusted to redox equilibrium
      Specific Conductance (µS/cm,   5°C)  = 6240
                          Density (g/cm³)  =   1.00411
                               Volume (L)  =   1.00143
                        Viscosity (mPa s)  =   1.52897
                        Activity of water  =   0.997
                 Ionic strength (mol/kgw)  =   9.485e-02
                       Mass of water (kg)  =   1.000e+00
                 Total alkalinity (eq/kg)  =   3.186e-17
                         Temperature (°C)  =   5.00
                  Electrical balance (eq)  =  -2.328e-16
 Percent error, 100*(Cat-|An|)/(Cat+|An|)  =  -0.00
                               Iterations  =   8
                                  Total H  = 1.110124e+02
                                  Total O  = 5.550622e+01

----------------------------Distribution of species----------------------------

                                               Log       Log       Log    mole V
   Species          Molality    Activity  Molality  Activity     Gamma   cm³/mol

   OH-             5.439e-08   4.196e-08    -7.264    -7.377    -0.113     -5.20
   H+              5.323e-08   4.428e-08    -7.274    -7.354    -0.080      0.00
   H2O             5.551e+01   9.968e-01     1.744    -0.001     0.000     18.02
Cl            9.485e-02
   Cl-             9.485e-02   7.363e-02    -1.023    -1.133    -0.110     17.19
   HCl             1.159e-09   1.271e-09    -8.936    -8.896     0.040     18.45
H(0)          3.188e-17
   H2              1.594e-17   1.631e-17   -16.798   -16.788     0.010     13.02
Na            9.485e-02
   Na+             9.485e-02   7.530e-02    -1.023    -1.123    -0.100     -2.53
O(0)          0.000e+00
   O2              0.000e+00   0.000e+00   -65.949   -65.940     0.009     28.29

------------------------------Saturation indices-------------------------------

  Phase               SI** log IAP   log K(278 K,   1 atm)

  H2(g)           -13.74    -16.79   -3.05  H2
  H2O(g)           -2.06     -0.00    2.06  H2O
  Halite           -3.81     -2.26    1.55  NaCl
  O2(g)           -63.23    -65.94   -2.71  O2

**For a gas, SI = log10(fugacity). Fugacity = pressure * phi / 1 atm.
  For ideal gases, phi = 1.

Reaction step 5.

Using solution 1.	
Using temperature 1.	
Using pressure 1.	
Using reaction 1.	

Reaction 1.	

	  1.000e-01 moles of the following reaction have been added:

	                 Relative
	Reactant            moles

	NaCl                 1.00000

	                 Relative
	Element             moles
	Cl                   1.00000
	Na                   1.00000

-----------------------------Solution composition------------------------------

	Elements           Molality       Moles

	Cl                1.000e-01   1.000e-01
	Na                1.000e-01   1.000e-01

----------------------------Description of solution----------------------------

                                       pH  =   7.354      Charge balance
                                       pe  =  -0.423      Adjusted to redox equilibrium
      Specific Conductance (µS/cm,   5°C)  = 6558
                          Density (g/cm³)  =   1.00433
                               Volume (L)  =   1.00150
                        Viscosity (mPa s)  =   1.52950
                        Activity of water  =   0.997
                 Ionic strength (mol/kgw)  =   1.000e-01
                       Mass of water (kg)  =   1.000e+00
                 Total alkalinity (eq/kg)  =   2.327e-17
                         Temperature (°C)  =   5.00
                  Electrical balance (eq)  =  -1.900e-16
 Percent error, 100*(Cat-|An|)/(Cat+|An|)  =  -0.00
                               Iterations  =   8
                                  Total H  = 1.110124e+02
                                  Total O  = 5.550622e+01

----------------------------Distribution of species----------------------------

                                               Log       Log       Log    mole V
   Species          Molality    Activity  Molality  Activity     Gamma   cm³/mol

   OH-             5.462e-08   4.192e-08    -7.263    -7.378    -0.115     -5.18
   H+              5.341e-08   4.431e-08    -7.272    -7.354    -0.081      0.00
   H2O             5.551e+01   9.966e-01     1.744    -0.001     0.000     18.02
Cl            1.000e-01
   Cl-             1.000e-01   7.725e-02    -1.000    -1.112    -0.112     17.20
   HCl             1.210e-09   1.335e-09    -8.917    -8.875     0.043     18.45
H(0)          2.352e-17
   H2              1.176e-17   1.205e-17   -16.930   -16.919     0.011     13.02
Na            1.000e-01
   Na+             1.000e-01   7.909e-02    -1.000    -1.102    -0.102     -2.52
O(0)          0.000e+00
   O2              0.000e+00   0.000e+00   -65.687   -65.677     0.010     28.29

------------------------------Saturation indices-------------------------------

  Phase               SI** log IAP   log K(278 K,   1 atm)

  H2(g)           -13.87    -16.92   -3.05  H2
  H2O(g)           -2.06     -0.00    2.06  H2O
  Halite           -3.77     -2.21    1.55  NaCl
  O2(g)           -62.96    -65.68   -2.71  O2

**For a gas, SI = log10(fugacity). Fugacity = pressure * phi / 1 atm.
  For ideal gases, phi = 1.

Reaction step 6.

Using solution 1.	
Using temperature 1.	
Using pressure 1.	
Using reaction 1.	

Reaction 1.	

	  1.243e-01 moles of the following reaction have been added:

	                 Relative
	Reactant            moles

	NaCl                 1.00000

	                 Relative
	Element             moles
	Cl                   1.00000
	Na                   1.00000

-----------------------------Solution composition------------------------------

	Elements           Molality       Moles

	Cl                1.243e-01   1.243e-01
	Na                1.243e-01   1.243e-01

----------------------------Description of solution----------------------------

                                       pH  =   7.352      Charge balance
                                       pe  =  -0.552      Adjusted to redox equilibrium
      Specific Conductance (µS/cm,   5°C)  = 8039
                          Density (g/cm³)  =   1.00538
                               Volume (L)  =   1.00187
                        Viscosity (mPa s)  =   1.53200
                        Activity of water  =   0.996
                 Ionic strength (mol/kgw)  =   1.243e-01
                       Mass of water (kg)  =   1.000e+00
                 Total alkalinity (eq/kg)  =   4.035e-17
                         Temperature (°C)  =   5.00
                  Electrical balance (eq)  =  -1.390e-15
 Percent error, 100*(Cat-|An|)/(Cat+|An|)  =  -0.00
                               Iterations  =   8
                                  Total H  = 1.110124e+02
                                  Total O  = 5.550622e+01

----------------------------Distribution of species----------------------------

                                               Log       Log       Log    mole V
   Species          Molality    Activity  Molality  Activity     Gamma   cm³/mol

   OH-             5.559e-08   4.176e-08    -7.255    -7.379    -0.124     -5.13
   H+              5.415e-08   4.445e-08    -7.266    -7.352    -0.086      0.00
   H2O             5.551e+01   9.958e-01     1.744    -0.002     0.000     18.02
Cl            1.243e-01
   Cl-             1.243e-01   9.407e-02    -0.906    -1.027    -0.121     17.23
   HCl             1.444e-09   1.631e-09    -8.840    -8.788     0.053     18.45
H(0)          4.267e-17
   H2              2.133e-17   2.199e-17   -16.671   -16.658     0.013     13.02
Na            1.243e-01
   Na+             1.243e-01   9.679e-02    -0.906    -1.014    -0.108     -2.46
O(0)          0.000e+00
   O2              0.000e+00   0.000e+00   -66.213   -66.200     0.012     28.29

------------------------------Saturation indices-------------------------------

  Phase               SI** log IAP   log K(278 K,   1 atm)

  H2(g)           -13.61    -16.66   -3.05  H2
  H2O(g)           -2.06     -0.00    2.06  H2O
  Halite           -3.59     -2.04    1.55  NaCl
  O2(g)           -63.49    -66.20   -2.71  O2

**For a gas, SI = log10(fugacity). Fugacity = pressure * phi / 1 atm.
  For ideal gases, phi = 1.

Reaction step 7.

Using solution 1.	
Using temperature 1.	
Using pressure 1.	
Using reaction 1.	

Reaction 1.	

	  1.615e-01 moles of the following reaction have been added:

	                 Relative
	Reactant            moles

	NaCl                 1.00000

	                 Relative
	Element             moles
	Cl                   1.00000
	Na                   1.00000

-----------------------------Solution composition------------------------------

	Elements           Molality       Moles

	Cl                1.615e-01   1.615e-01
	Na                1.615e-01   1.615e-01

----------------------------Description of solution----------------------------

                                       pH  =   7.350      Charge balance
                                       pe  =  -0.570      Adjusted to redox equilibrium
      Specific Conductance (µS/cm,   5°C)  = 10264
                          Density (g/cm³)  =   1.00698
                               Volume (L)  =   1.00244
                        Viscosity (mPa s)  =   1.53582
                        Activity of water  =   0.995
                 Ionic strength (mol/kgw)  =   1.615e-01
                       Mass of water (kg)  =   1.000e+00
                 Total alkalinity (eq/kg)  =   4.296e-17
                         Temperature (°C)  =   5.00
                  Electrical balance (eq)  =  -5.161e-15
 Percent error, 100*(Cat-|An|)/(Cat+|An|)  =  -0.00
                               Iterations  =   8
                                  Total H  = 1.110124e+02
                                  Total O  = 5.550622e+01

----------------------------Distribution of species----------------------------

                                               Log       Log       Log    mole V
   Species          Molality    Activity  Molality  Activity     Gamma   cm³/mol

   OH-             5.684e-08   4.153e-08    -7.245    -7.382    -0.136     -5.05
   H+              5.507e-08   4.463e-08    -7.259    -7.350    -0.091      0.00
   H2O             5.551e+01   9.945e-01     1.744    -0.002     0.000     18.02
Cl            1.615e-01
   Cl-             1.615e-01   1.192e-01    -0.792    -0.924    -0.132     17.27
   HCl             1.771e-09   2.074e-09    -8.752    -8.683     0.069     18.45
H(0)          4.629e-17
   H2              2.314e-17   2.406e-17   -16.636   -16.619     0.017     13.02
Na            1.615e-01
   Na+             1.615e-01   1.235e-01    -0.792    -0.908    -0.116     -2.39
O(0)          0.000e+00
   O2              0.000e+00   0.000e+00   -66.296   -66.280     0.016     28.29

------------------------------Saturation indices-------------------------------

  Phase               SI** log IAP   log K(278 K,   1 atm)

  H2(g)           -13.57    -16.62   -3.05  H2
  H2O(g)           -2.06     -0.00    2.06  H2O
  Halite           -3.38     -1.83    1.55  NaCl
  O2(g)           -63.57    -66.28   -2.71  O2

**For a gas, SI = log10(fugacity). Fugacity = pressure * phi / 1 atm.
  For ideal gases, phi = 1.

Reaction step 8.

Using solution 1.	
Using temperature 1.	
Using pressure 1.	
Using reaction 1.	

Reaction 1.	

	  1.663e-01 moles of the following reaction have been added:

	                 Relative
	Reactant            moles

	NaCl                 1.00000

	                 Relative
	Element             moles
	Cl                   1.00000
	Na                   1.00000

-----------------------------Solution composition------------------------------

	Elements           Molality       Moles

	Cl                1.663e-01   1.663e-01
	Na                1.663e-01   1.663e-01

----------------------------Description of solution----------------------------

                                       pH  =   7.350      Charge balance
                                       pe  =  -0.553      Adjusted to redox equilibrium
      Specific Conductance (µS/cm,   5°C)  = 10550
                          Density (g/cm³)  =   1.00719
                               Volume (L)  =   1.00251
                        Viscosity (mPa s)  =   1.53632
                        Activity of water  =   0.994
                 Ionic strength (mol/kgw)  =   1.663e-01
                       Mass of water (kg)  =   1.000e+00
                 Total alkalinity (eq/kg)  =   2.999e-17
                         Temperature (°C)  =   5.00
                  Electrical balance (eq)  =  -9.381e-15
 Percent error, 100*(Cat-|An|)/(Cat+|An|)  =  -0.00
                               Iterations  =   8
                                  Total H  = 1.110124e+02
                                  Total O  = 5.550622e+01

----------------------------Distribution of species----------------------------

                                               Log       Log       Log    mole V
   Species          Molality    Activity  Molality  Activity     Gamma   cm³/mol

   OH-             5.698e-08   4.151e-08    -7.244    -7.382    -0.138     -5.04
   H+              5.517e-08   4.465e-08    -7.258    -7.350    -0.092      0.00
   H2O             5.551e+01   9.943e-01     1.744    -0.002     0.000     18.02
Cl            1.663e-01
   Cl-             1.663e-01   1.224e-01    -0.779    -0.912    -0.133     17.27
   HCl             1.811e-09   2.131e-09    -8.742    -8.671     0.071     18.45
H(0)          4.294e-17
   H2              2.147e-17   2.235e-17   -16.668   -16.651     0.017     13.02
Na            1.663e-01
   Na+             1.663e-01   1.270e-01    -0.779    -0.896    -0.117     -2.38
O(0)          0.000e+00
   O2              0.000e+00   0.000e+00   -66.232   -66.216     0.017     28.29

------------------------------Saturation indices-------------------------------

  Phase               SI** log IAP   log K(278 K,   1 atm)

  H2(g)           -13.61    -16.65   -3.05  H2
  H2O(g)           -2.06     -0.00    2.06  H2O
  Halite           -3.36     -1.81    1.55  NaCl
  O2(g)           -63.50    -66.22   -2.71  O2

**For a gas, SI = log10(fugacity). Fugacity = pressure * phi / 1 atm.
  For ideal gases, phi = 1.

Reaction step 9.

Using solution 1.	
Using temperature 1.	
Using pressure 1.	
Using reaction 1.	

Reaction 1.	

	  1.985e-01 moles of the following reaction have been added:

	                 Relative
	Reactant            moles

	NaCl                 1.00000

	                 Relative
	Element             moles
	Cl                   1.00000
	Na                   1.00000

-----------------------------Solution composition------------------------------

	Elements           Molality       Moles

	Cl                1.985e-01   1.985e-01
	Na                1.985e-01   1.985e-01

----------------------------Description of solution----------------------------

                                       pH  =   7.349      Charge balance
                                       pe  =  -0.450      Adjusted to redox equilibrium
      Specific Conductance (µS/cm,   5°C)  = 12432
                          Density (g/cm³)  =   1.00856
                               Volume (L)  =   1.00301
                        Viscosity (mPa s)  =   1.53964
                        Activity of water  =   0.993
                 Ionic strength (mol/kgw)  =   1.985e-01
                       Mass of water (kg)  =   1.000e+00
                 Total alkalinity (eq/kg)  =   1.978e-17
                         Temperature (°C)  =   5.00
                  Electrical balance (eq)  =  -1.305e-10
 Percent error, 100*(Cat-|An|)/(Cat+|An|)  =  -0.00
                               Iterations  =  10
                                  Total H  = 1.110124e+02
                                  Total O  = 5.550622e+01

----------------------------Distribution of species----------------------------

                                               Log       Log       Log    mole V
   Species          Molality    Activity  Molality  Activity     Gamma   cm³/mol

   OH-             5.787e-08   4.134e-08    -7.238    -7.384    -0.146     -4.98
   H+              5.580e-08   4.478e-08    -7.253    -7.349    -0.096      0.00
   H2O             5.551e+01   9.933e-01     1.744    -0.003     0.000     18.02
Cl            1.985e-01
   Cl-             1.985e-01   1.435e-01    -0.702    -0.843    -0.141     17.30
   HCl             2.063e-09   2.506e-09    -8.685    -8.601     0.084     18.45
H(0)          2.663e-17
   H2              1.331e-17   1.397e-17   -16.876   -16.855     0.021     13.02
Na            1.985e-01
   Na+             1.985e-01   1.498e-01    -0.702    -0.824    -0.122     -2.32
O(0)          0.000e+00
   O2              0.000e+00   0.000e+00   -65.828   -65.808     0.020     28.29

------------------------------Saturation indices-------------------------------

  Phase               SI** log IAP   log K(278 K,   1 atm)

  H2(g)           -13.81    -16.85   -3.05  H2
  H2O(g)           -2.06     -0.00    2.06  H2O
  Halite           -3.22     -1.67    1.55  NaCl
  O2(g)           -63.09    -65.81   -2.71  O2

**For a gas, SI = log10(fugacity). Fugacity = pressure * phi / 1 atm.
  For ideal gases, phi = 1.

Reaction step 10.

Using solution 1.	
Using temperature 1.	
Using pressure 1.	
Using reaction 1.	

Reaction 1.	

	  2.000e-01 moles of the following reaction have been added:

	                 Relative
	Reactant            moles

	NaCl                 1.00000

	                 Relative
	Element             moles
	Cl                   1.00000
	Na                   1.00000

-----------------------------Solution composition------------------------------

	Elements           Molality       Moles

	Cl                2.000e-01   2.000e-01
	Na                2.000e-01   2.000e-01

----------------------------Description of solution----------------------------

                                       pH  =   7.349      Charge balance
                                       pe  =  -0.460      Adjusted to redox equilibrium
      Specific Conductance (µS/cm,   5°C)  = 12520
                          Density (g/cm³)  =   1.00863
                               Volume (L)  =   1.00303
                        Viscosity (mPa s)  =   1.53980
                        Activity of water  =   0.993
                 Ionic strength (mol/kgw)  =   2.000e-01
                       Mass of water (kg)  =   1.000e+00
                 Total alkalinity (eq/kg)  =   2.523e-17
                         Temperature (°C)  =   5.00
                  Electrical balance (eq)  =  -2.262e-14
 Percent error, 100*(Cat-|An|)/(Cat+|An|)  =  -0.00
                               Iterations  =   8
                                  Total H  = 1.110124e+02
                                  Total O  = 5.550622e+01

----------------------------Distribution of species----------------------------

                                               Log       Log       Log    mole V
   Species          Molality    Activity  Molality  Activity     Gamma   cm³/mol

   OH-             5.791e-08   4.133e-08    -7.237    -7.384    -0.146     -4.97
   H+              5.583e-08   4.479e-08    -7.253    -7.349    -0.096      0.00
   H2O             5.551e+01   9.932e-01     1.744    -0.003     0.000     18.02
Cl            2.000e-01
   Cl-             2.000e-01   1.445e-01    -0.699    -0.840    -0.141     17.31
   HCl             2.075e-09   2.524e-09    -8.683    -8.598     0.085     18.45
H(0)          2.781e-17
   H2              1.391e-17   1.459e-17   -16.857   -16.836     0.021     13.02
Na            2.000e-01
   Na+             2.000e-01   1.509e-01    -0.699    -0.821    -0.122     -2.32
O(0)          0.000e+00
   O2              0.000e+00   0.000e+00   -65.867   -65.847     0.020     28.29

------------------------------Saturation indices-------------------------------

  Phase               SI** log IAP   log K(278 K,   1 atm)

  H2(g)           -13.79    -16.84   -3.05  H2
  H2O(g)           -2.06     -0.00    2.06  H2O
  Halite           -3.21     -1.66    1.55  NaCl
  O2(g)           -63.13    -65.85   -2.71  O2

**For a gas, SI = log10(fugacity). Fugacity = pressure * phi / 1 atm.
  For ideal gases, phi = 1.

Reaction step 11.

Using solution 1.	
Using temperature 1.	
Using pressure 1.	
Using reaction 1.	

Reaction 1.	

	  2.572e-01 moles of the following reaction have been added:

	                 Relative
	Reactant            moles

	NaCl                 1.00000

	                 Relative
	Element             moles
	Cl                   1.00000
	Na                   1.00000

-----------------------------Solution composition------------------------------

	Elements           Molality       Moles

	Cl                2.572e-01   2.572e-01
	Na                2.572e-01   2.572e-01

----------------------------Description of solution----------------------------

                                       pH  =   7.347      Charge balance
                                       pe  =  -0.436      Adjusted to redox equilibrium
      Specific Conductance (µS/cm,   5°C)  = 15794
                          Density (g/cm³)  =   1.01106
                               Volume (L)  =   1.00393
                        Viscosity (mPa s)  =   1.54577
                        Activity of water  =   0.991
                 Ionic strength (mol/kgw)  =   2.572e-01
                       Mass of water (kg)  =   1.000e+00
                 Total alkalinity (eq/kg)  =   2.260e-17
                         Temperature (°C)  =   5.00
                  Electrical balance (eq)  =  -1.631e-10
 Percent error, 100*(Cat-|An|)/(Cat+|An|)  =  -0.00
                               Iterations  =  10
                                  Total H  = 1.110124e+02
                                  Total O  = 5.550622e+01

----------------------------Distribution of species----------------------------

                                               Log       Log       Log    mole V
   Species          Molality    Activity  Molality  Activity     Gamma   cm³/mol

   OH-             5.922e-08   4.107e-08    -7.228    -7.386    -0.159     -4.86
   H+              5.675e-08   4.498e-08    -7.246    -7.347    -0.101      0.00
   H2O             5.551e+01   9.913e-01     1.744    -0.004     0.000     18.02
Cl            2.572e-01
   Cl-             2.572e-01   1.811e-01    -0.590    -0.742    -0.152     17.36
   HCl             2.470e-09   3.178e-09    -8.607    -8.498     0.109     18.45
H(0)          2.487e-17
   H2              1.244e-17   1.323e-17   -16.905   -16.878     0.027     13.02
Na            2.572e-01
   Na+             2.572e-01   1.913e-01    -0.590    -0.718    -0.129     -2.23
O(0)          0.000e+00
   O2              0.000e+00   0.000e+00   -65.789   -65.763     0.026     28.29

------------------------------Saturation indices-------------------------------

  Phase               SI** log IAP   log K(278 K,   1 atm)

  H2(g)           -13.83    -16.88   -3.05  H2
  H2O(g)           -2.06     -0.00    2.06  H2O
  Halite           -3.01     -1.46    1.55  NaCl
  O2(g)           -63.05    -65.76   -2.71  O2

**For a gas, SI = log10(fugacity). Fugacity = pressure * phi / 1 atm.
  For ideal gases, phi = 1.

Reaction step 12.

Using solution 1.	
Using temperature 1.	
Using pressure 1.	
Using reaction 1.	

Reaction 1.	

	  3.200e-01 moles of the following reaction have been added:

	                 Relative
	Reactant            moles

	NaCl                 1.00000

	                 Relative
	Element             moles
	Cl                   1.00000
	Na                   1.00000

-----------------------------Solution composition------------------------------

	Elements           Molality       Moles

	Cl                3.200e-01   3.200e-01
	Na                3.200e-01   3.200e-01

----------------------------Description of solution----------------------------

                                       pH  =   7.345      Charge balance
                                       pe  =  -0.618      Adjusted to redox equilibrium
      Specific Conductance (µS/cm,   5°C)  = 19295
                          Density (g/cm³)  =   1.01371
                               Volume (L)  =   1.00492
                        Viscosity (mPa s)  =   1.55241
                        Activity of water  =   0.989
                 Ionic strength (mol/kgw)  =   3.200e-01
                       Mass of water (kg)  =   1.000e+00
                 Total alkalinity (eq/kg)  =   5.544e-17
                         Temperature (°C)  =   5.00
                  Electrical balance (eq)  =  -3.529e-13
 Percent error, 100*(Cat-|An|)/(Cat+|An|)  =  -0.00
                               Iterations  =   8
                                  Total H  = 1.110124e+02
                                  Total O  = 5.550622e+01

----------------------------Distribution of species----------------------------

                                               Log       Log       Log    mole V
   Species          Molality    Activity  Molality  Activity     Gamma   cm³/mol

   OH-             6.038e-08   4.082e-08    -7.219    -7.389    -0.170     -4.75
   H+              5.755e-08   4.516e-08    -7.240    -7.345    -0.105      0.00
   H2O             5.551e+01   9.891e-01     1.744    -0.005     0.000     18.02
Cl            3.200e-01
   Cl-             3.200e-01   2.203e-01    -0.495    -0.657    -0.162     17.41
   HCl             2.836e-09   3.880e-09    -8.547    -8.411     0.136     18.45
H(0)          5.699e-17
   H2              2.849e-17   3.078e-17   -16.545   -16.512     0.034     13.02
Na            3.200e-01
   Na+             3.200e-01   2.354e-01    -0.495    -0.628    -0.133     -2.14
O(0)          0.000e+00
   O2              0.000e+00   0.000e+00   -66.530   -66.498     0.032     28.29

------------------------------Saturation indices-------------------------------

  Phase               SI** log IAP   log K(278 K,   1 atm)

  H2(g)           -13.47    -16.51   -3.05  H2
  H2O(g)           -2.06     -0.00    2.06  H2O
  Halite           -2.84     -1.29    1.55  NaCl
  O2(g)           -63.78    -66.50   -2.71  O2

**For a gas, SI = log10(fugacity). Fugacity = pressure * phi / 1 atm.
  For ideal gases, phi = 1.

Reaction step 13.

Using solution 1.	
Using temperature 1.	
Using pressure 1.	
Using reaction 1.	

Reaction 1.	

	  3.331e-01 moles of the following reaction have been added:

	                 Relative
	Reactant            moles

	NaCl                 1.00000

	                 Relative
	Element             moles
	Cl                   1.00000
	Na                   1.00000

-----------------------------Solution composition------------------------------

	Elements           Molality       Moles

	Cl                3.331e-01   3.331e-01
	Na                3.331e-01   3.331e-01

----------------------------Description of solution----------------------------

                                       pH  =   7.345      Charge balance
                                       pe  =  -1.120      Adjusted to redox equilibrium
      Specific Conductance (µS/cm,   5°C)  = 20017
                          Density (g/cm³)  =   1.01426
                               Volume (L)  =   1.00513
                        Viscosity (mPa s)  =   1.55382
                        Activity of water  =   0.989
                 Ionic strength (mol/kgw)  =   3.331e-01
                       Mass of water (kg)  =   1.000e+00
                 Total alkalinity (eq/kg)  =   6.254e-17
                         Temperature (°C)  =   5.00
                  Electrical balance (eq)  =  -4.128e-15
 Percent error, 100*(Cat-|An|)/(Cat+|An|)  =  -0.00
                               Iterations  =  11
                                  Total H  = 1.110124e+02
                                  Total O  = 5.550622e+01

----------------------------Distribution of species----------------------------

                                               Log       Log       Log    mole V
   Species          Molality    Activity  Molality  Activity     Gamma   cm³/mol

   OH-             6.060e-08   4.077e-08    -7.218    -7.390    -0.172     -4.73
   H+              5.770e-08   4.520e-08    -7.239    -7.345    -0.106      0.00
   H2O             5.551e+01   9.887e-01     1.744    -0.005     0.000     18.02
Cl            3.331e-01
   Cl-             3.331e-01   2.284e-01    -0.477    -0.641    -0.164     17.42
   HCl             2.905e-09   4.026e-09    -8.537    -8.395     0.142     18.45
H(0)          5.747e-16
   H2              2.874e-16   3.115e-16   -15.542   -15.507     0.035     13.02
Na            3.331e-01
   Na+             3.331e-01   2.446e-01    -0.477    -0.612    -0.134     -2.12
O(0)          0.000e+00
   O2              0.000e+00   0.000e+00   -68.542   -68.509     0.033     28.29

------------------------------Saturation indices-------------------------------

  Phase               SI** log IAP   log K(278 K,   1 atm)

  H2(g)           -12.46    -15.51   -3.05  H2
  H2O(g)           -2.06     -0.00    2.06  H2O
  Halite           -2.81     -1.25    1.55  NaCl
  O2(g)           -65.79    -68.51   -2.71  O2

**For a gas, SI = log10(fugacity). Fugacity = pressure * phi / 1 atm.
  For ideal gases, phi = 1.

Reaction step 14.

Using solution 1.	
Using temperature 1.	
Using pressure 1.	
Using reaction 1.	

Reaction 1.	

	  3.564e-01 moles of the following reaction have been added:

	                 Relative
	Reactant            moles

	NaCl                 1.00000

	                 Relative
	Element             moles
	Cl                   1.00000
	Na                   1.00000

-----------------------------Solution composition------------------------------

	Elements           Molality       Moles

	Cl                3.564e-01   3.564e-01
	Na                3.564e-01   3.564e-01

----------------------------Description of solution----------------------------

                                       pH  =   7.344      Charge balance
                                       pe  =  -0.955      Adjusted to redox equilibrium
      Specific Conductance (µS/cm,   5°C)  = 21289
                          Density (g/cm³)  =   1.01524
                               Volume (L)  =   1.00550
                        Viscosity (mPa s)  =   1.55633
                        Activity of water  =   0.988
                 Ionic strength (mol/kgw)  =   3.564e-01
                       Mass of water (kg)  =   1.000e+00
                 Total alkalinity (eq/kg)  =   3.615e-17
                         Temperature (°C)  =   5.00
                  Electrical balance (eq)  =  -1.061e-16
 Percent error, 100*(Cat-|An|)/(Cat+|An|)  =  -0.00
                               Iterations  =  30
                                  Total H  = 1.110124e+02
                                  Total O  = 5.550622e+01

----------------------------Distribution of species----------------------------

                                               Log       Log       Log    mole V
   Species          Molality    Activity  Molality  Activity     Gamma   cm³/mol

   OH-             6.097e-08   4.069e-08    -7.215    -7.391    -0.176     -4.68
   H+              5.795e-08   4.526e-08    -7.237    -7.344    -0.107      0.00
   H2O             5.551e+01   9.879e-01     1.744    -0.005     0.000     18.02
Cl            3.564e-01
   Cl-             3.564e-01   2.426e-01    -0.448    -0.615    -0.167     17.43
   HCl             3.020e-09   4.283e-09    -8.520    -8.368     0.152     18.45
H(0)          2.671e-16
   H2              1.335e-16   1.456e-16   -15.874   -15.837     0.037     13.02
Na            3.564e-01
   Na+             3.564e-01   2.610e-01    -0.448    -0.583    -0.135     -2.09
O(0)          0.000e+00
   O2              0.000e+00   0.000e+00   -67.885   -67.849     0.036     28.29

------------------------------Saturation indices-------------------------------

  Phase               SI** log IAP   log K(278 K,   1 atm)

  H2(g)           -12.79    -15.84   -3.05  H2
  H2O(g)           -2.06     -0.01    2.06  H2O
  Halite           -2.75     -1.20    1.55  NaCl
  O2(g)           -65.13    -67.85   -2.71  O2

**For a gas, SI = log10(fugacity). Fugacity = pressure * phi / 1 atm.
  For ideal gases, phi = 1.

Reaction step 15.

Using solution 1.	
Using temperature 1.	
Using pressure 1.	
Using reaction 1.	

Reaction 1.	

	  4.758e-01 moles of the following reaction have been added:

	                 Relative
	Reactant            moles

	NaCl                 1.00000

	                 Relative
	Element             moles
	Cl                   1.00000
	Na                   1.00000

-----------------------------Solution composition------------------------------

	Elements           Molality       Moles

	Cl                4.758e-01   4.758e-01
	Na                4.758e-01   4.758e-01

----------------------------Description of solution----------------------------

                                       pH  =   7.342      Charge balance
                                       pe  =  -0.738      Adjusted to redox equilibrium
      Specific Conductance (µS/cm,   5°C)  = 27657
                          Density (g/cm³)  =   1.02022
                               Volume (L)  =   1.00744
                        Viscosity (mPa s)  =   1.56949
                        Activity of water  =   0.984
                 Ionic strength (mol/kgw)  =   4.758e-01
                       Mass of water (kg)  =   1.000e+00
                 Total alkalinity (eq/kg)  =   6.643e-17
                         Temperature (°C)  =   5.00
                  Electrical balance (eq)  =  -3.163e-13
 Percent error, 100*(Cat-|An|)/(Cat+|An|)  =  -0.00
                               Iterations  =  11
                                  Total H  = 1.110124e+02
                                  Total O  = 5.550622e+01

----------------------------Distribution of species----------------------------

                                               Log       Log       Log    mole V
   Species          Molality    Activity  Molality  Activity     Gamma   cm³/mol

   OH-             6.253e-08   4.029e-08    -7.204    -7.395    -0.191     -4.48
   H+              5.903e-08   4.552e-08    -7.229    -7.342    -0.113      0.00
   H2O             5.551e+01   9.838e-01     1.744    -0.007     0.000     18.02
Cl            4.758e-01
   Cl-             4.758e-01   3.145e-01    -0.323    -0.502    -0.180     17.52
   HCl             3.503e-09   5.583e-09    -8.456    -8.253     0.202     18.45
H(0)          9.676e-17
   H2              4.838e-17   5.428e-17   -16.315   -16.265     0.050     13.02
Na            4.758e-01
   Na+             4.758e-01   3.455e-01    -0.323    -0.462    -0.139     -1.96
O(0)          0.000e+00
   O2              0.000e+00   0.000e+00   -67.043   -66.996     0.048     28.29

------------------------------Saturation indices-------------------------------

  Phase               SI** log IAP   log K(278 K,   1 atm)

  H2(g)           -13.22    -16.27   -3.05  H2
  H2O(g)           -2.06     -0.01    2.06  H2O
  Halite           -2.52     -0.96    1.55  NaCl
  O2(g)           -64.28    -67.00   -2.71  O2

**For a gas, SI = log10(fugacity). Fugacity = pressure * phi / 1 atm.
  For ideal gases, phi = 1.

Reaction step 16.

Using solution 1.	
Using temperature 1.	
Using pressure 1.	
Using reaction 1.	

Reaction 1.	

	  4.832e-01 moles of the following reaction have been added:

	                 Relative
	Reactant            moles

	NaCl                 1.00000

	                 Relative
	Element             moles
	Cl                   1.00000
	Na                   1.00000

-----------------------------Solution composition------------------------------

	Elements           Molality       Moles

	Cl                4.832e-01   4.832e-01
	Na                4.832e-01   4.832e-01

----------------------------Description of solution----------------------------

                                       pH  =   7.342      Charge balance
                                       pe  =  -0.560      Adjusted to redox equilibrium
      Specific Conductance (µS/cm,   5°C)  = 28046
                          Density (g/cm³)  =   1.02052
                               Volume (L)  =   1.00756
                        Viscosity (mPa s)  =   1.57033
                        Activity of water  =   0.984
                 Ionic strength (mol/kgw)  =   4.832e-01
                       Mass of water (kg)  =   1.000e+00
                 Total alkalinity (eq/kg)  =   6.360e-18
                         Temperature (°C)  =   5.00
                  Electrical balance (eq)  =  -1.442e-13
 Percent error, 100*(Cat-|An|)/(Cat+|An|)  =  -0.00
                               Iterations  =  20
                                  Total H  = 1.110124e+02
                                  Total O  = 5.550622e+01

----------------------------Distribution of species----------------------------

                                               Log       Log       Log    mole V
   Species          Molality    Activity  Molality  Activity     Gamma   cm³/mol

   OH-             6.261e-08   4.026e-08    -7.203    -7.395    -0.192     -4.47
   H+              5.909e-08   4.553e-08    -7.229    -7.342    -0.113      0.00
   H2O             5.551e+01   9.836e-01     1.744    -0.007     0.000     18.02
Cl            4.832e-01
   Cl-             4.832e-01   3.189e-01    -0.316    -0.496    -0.180     17.52
   HCl             3.527e-09   5.663e-09    -8.453    -8.247     0.206     18.45
H(0)          4.267e-17
   H2              2.134e-17   2.398e-17   -16.671   -16.620     0.051     13.02
Na            4.832e-01
   Na+             4.832e-01   3.508e-01    -0.316    -0.455    -0.139     -1.95
O(0)          0.000e+00
   O2              0.000e+00   0.000e+00   -66.335   -66.286     0.048     28.29

------------------------------Saturation indices-------------------------------

  Phase               SI** log IAP   log K(278 K,   1 atm)

  H2(g)           -13.58    -16.62   -3.05  H2
  H2O(g)           -2.06     -0.01    2.06  H2O
  Halite           -2.50     -0.95    1.55  NaCl
  O2(g)           -63.57    -66.29   -2.71  O2

**For a gas, SI = log10(fugacity). Fugacity = pressure * phi / 1 atm.
  For ideal gases, phi = 1.

Reaction step 17.

Using solution 1.	
Using temperature 1.	
Using pressure 1.	
Using reaction 1.	

Reaction 1.	

	  5.000e-01 moles of the following reaction have been added:

	                 Relative
	Reactant            moles

	NaCl                 1.00000

	                 Relative
	Element             moles
	Cl                   1.00000
	Na                   1.00000

-----------------------------Solution composition------------------------------

	Elements           Molality       Moles

	Cl                5.000e-01   5.000e-01
	Na                5.000e-01   5.000e-01

----------------------------Description of solution----------------------------

                                       pH  =   7.341      Charge balance
                                       pe  =  -1.051      Adjusted to redox equilibrium
      Specific Conductance (µS/cm,   5°C)  = 28921
                          Density (g/cm³)  =   1.02122
                               Volume (L)  =   1.00784
                        Viscosity (mPa s)  =   1.57223
                        Activity of water  =   0.983
                 Ionic strength (mol/kgw)  =   5.000e-01
                       Mass of water (kg)  =   1.000e+00
                 Total alkalinity (eq/kg)  =  -2.883e-17
                         Temperature (°C)  =   5.00
                  Electrical balance (eq)  =  -1.730e-13
 Percent error, 100*(Cat-|An|)/(Cat+|An|)  =  -0.00
                               Iterations  =  16
                                  Total H  = 1.110124e+02
                                  Total O  = 5.550622e+01

----------------------------Distribution of species----------------------------

                                               Log       Log       Log    mole V
   Species          Molality    Activity  Molality  Activity     Gamma   cm³/mol

   OH-             6.280e-08   4.021e-08    -7.202    -7.396    -0.194     -4.44
   H+              5.922e-08   4.556e-08    -7.228    -7.341    -0.114      0.00
   H2O             5.551e+01   9.830e-01     1.744    -0.007     0.000     18.02
Cl            5.000e-01
   Cl-             5.000e-01   3.289e-01    -0.301    -0.483    -0.182     17.53
   HCl             3.581e-09   5.845e-09    -8.446    -8.233     0.213     18.45
H(0)          4.072e-16
   H2              2.036e-16   2.297e-16   -15.691   -15.639     0.053     13.02
Na            5.000e-01
   Na+             5.000e-01   3.628e-01    -0.301    -0.440    -0.139     -1.93
O(0)          0.000e+00
   O2              0.000e+00   0.000e+00   -68.300   -68.250     0.050     28.29

------------------------------Saturation indices-------------------------------

  Phase               SI** log IAP   log K(278 K,   1 atm)

  H2(g)           -12.59    -15.64   -3.05  H2
  H2O(g)           -2.06     -0.01    2.06  H2O
  Halite           -2.48     -0.92    1.55  NaCl
  O2(g)           -65.53    -68.25   -2.71  O2

**For a gas, SI = log10(fugacity). Fugacity = pressure * phi / 1 atm.
  For ideal gases, phi = 1.

Reaction step 18.

Using solution 1.	
Using temperature 1.	
Using pressure 1.	
Using reaction 1.	

Reaction 1.	

	  5.012e-01 moles of the following reaction have been added:

	                 Relative
	Reactant            moles

	NaCl                 1.00000

	                 Relative
	Element             moles
	Cl                   1.00000
	Na                   1.00000

-----------------------------Solution composition------------------------------

	Elements           Molality       Moles

	Cl                5.012e-01   5.012e-01
	Na                5.012e-01   5.012e-01

----------------------------Description of solution----------------------------

                                       pH  =   7.341      Charge balance
                                       pe  =  -0.200      Adjusted to redox equilibrium
      Specific Conductance (µS/cm,   5°C)  = 28984
                          Density (g/cm³)  =   1.02127
                               Volume (L)  =   1.00786
                        Viscosity (mPa s)  =   1.57236
                        Activity of water  =   0.983
                 Ionic strength (mol/kgw)  =   5.012e-01
                       Mass of water (kg)  =   1.000e+00
                 Total alkalinity (eq/kg)  =  -7.282e-17
                         Temperature (°C)  =   5.00
                  Electrical balance (eq)  =  -4.109e-09
 Percent error, 100*(Cat-|An|)/(Cat+|An|)  =  -0.00
                               Iterations  =   8
                                  Total H  = 1.110124e+02
                                  Total O  = 5.550622e+01

----------------------------Distribution of species----------------------------

                                               Log       Log       Log    mole V
   Species          Molality    Activity  Molality  Activity     Gamma   cm³/mol

   OH-             6.281e-08   4.021e-08    -7.202    -7.396    -0.194     -4.44
   H+              5.922e-08   4.557e-08    -7.227    -7.341    -0.114      0.00
   H2O             5.551e+01   9.830e-01     1.744    -0.007     0.000     18.02
Cl            5.012e-01
   Cl-             5.012e-01   3.296e-01    -0.300    -0.482    -0.182     17.53
   HCl             3.584e-09   5.858e-09    -8.446    -8.232     0.213     18.45
H(0)          8.085e-18
   H2              4.042e-18   4.563e-18   -17.393   -17.341     0.053     13.02
Na            5.012e-01
   Na+             5.012e-01   3.637e-01    -0.300    -0.439    -0.139     -1.93
O(0)          0.000e+00
   O2              0.000e+00   0.000e+00   -64.896   -64.846     0.050     28.29

------------------------------Saturation indices-------------------------------

  Phase               SI** log IAP   log K(278 K,   1 atm)

  H2(g)           -14.30    -17.34   -3.05  H2
  H2O(g)           -2.06     -0.01    2.06  H2O
  Halite           -2.47     -0.92    1.55  NaCl
  O2(g)           -62.13    -64.85   -2.71  O2

**For a gas, SI = log10(fugacity). Fugacity = pressure * phi / 1 atm.
  For ideal gases, phi = 1.

Reaction step 19.

Using solution 1.	
Using temperature 1.	
Using pressure 1.	
Using reaction 1.	

Reaction 1.	

	  5.019e-01 moles of the following reaction have been added:

	                 Relative
	Reactant            moles

	NaCl                 1.00000

	                 Relative
	Element             moles
	Cl                   1.00000
	Na                   1.00000

-----------------------------Solution composition------------------------------

	Elements           Molality       Moles

	Cl                5.019e-01   5.019e-01
	Na                5.019e-01   5.019e-01

----------------------------Description of solution----------------------------

                                       pH  =   7.341      Charge balance
                                       pe  =  -0.598      Adjusted to redox equilibrium
      Specific Conductance (µS/cm,   5°C)  = 29020
                          Density (g/cm³)  =   1.02130
                               Volume (L)  =   1.00787
                        Viscosity (mPa s)  =   1.57244
                        Activity of water  =   0.983
                 Ionic strength (mol/kgw)  =   5.019e-01
                       Mass of water (kg)  =   1.000e+00
                 Total alkalinity (eq/kg)  =   5.020e-17
                         Temperature (°C)  =   5.00
                  Electrical balance (eq)  =  -2.543e-12
 Percent error, 100*(Cat-|An|)/(Cat+|An|)  =  -0.00
                               Iterations  =  20
                                  Total H  = 1.110124e+02
                                  Total O  = 5.550622e+01

----------------------------Distribution of species----------------------------

                                               Log       Log       Log    mole V
   Species          Molality    Activity  Molality  Activity     Gamma   cm³/mol

   OH-             6.282e-08   4.021e-08    -7.202    -7.396    -0.194     -4.44
   H+              5.923e-08   4.557e-08    -7.227    -7.341    -0.114      0.00
   H2O             5.551e+01   9.829e-01     1.744    -0.007     0.000     18.02
Cl            5.019e-01
   Cl-             5.019e-01   3.300e-01    -0.299    -0.481    -0.182     17.53
   HCl             3.586e-09   5.865e-09    -8.445    -8.232     0.214     18.45
H(0)          5.061e-17
   H2              2.530e-17   2.857e-17   -16.597   -16.544     0.053     13.02
Na            5.019e-01
   Na+             5.019e-01   3.642e-01    -0.299    -0.439    -0.139     -1.93
O(0)          0.000e+00
   O2              0.000e+00   0.000e+00   -66.489   -66.439     0.050     28.29

------------------------------Saturation indices-------------------------------

  Phase               SI** log IAP   log K(278 K,   1 atm)

  H2(g)           -13.50    -16.54   -3.05  H2
  H2O(g)           -2.06     -0.01    2.06  H2O
  Halite           -2.47     -0.92    1.55  NaCl
  O2(g)           -63.72    -66.44   -2.71  O2

**For a gas, SI = log10(fugacity). Fugacity = pressure * phi / 1 atm.
  For ideal gases, phi = 1.

Reaction step 20.

Using solution 1.	
Using temperature 1.	
Using pressure 1.	
Using reaction 1.	

Reaction 1.	

	  5.079e-01 moles of the following reaction have been added:

	                 Relative
	Reactant            moles

	NaCl                 1.00000

	                 Relative
	Element             moles
	Cl                   1.00000
	Na                   1.00000

-----------------------------Solution composition------------------------------

	Elements           Molality       Moles

	Cl                5.079e-01   5.079e-01
	Na                5.079e-01   5.079e-01

----------------------------Description of solution----------------------------

                                       pH  =   7.341      Charge balance
                                       pe  =   0.130      Adjusted to redox equilibrium
      Specific Conductance (µS/cm,   5°C)  = 29329
                          Density (g/cm³)  =   1.02154
                               Volume (L)  =   1.00797
                        Viscosity (mPa s)  =   1.57312
                        Activity of water  =   0.983
                 Ionic strength (mol/kgw)  =   5.079e-01
                       Mass of water (kg)  =   1.000e+00
                 Total alkalinity (eq/kg)  =  -2.813e-17
                         Temperature (°C)  =   5.00
                  Electrical balance (eq)  =  -2.100e-12
 Percent error, 100*(Cat-|An|)/(Cat+|An|)  =  -0.00
                               Iterations  =  17
                                  Total H  = 1.110124e+02
                                  Total O  = 5.550622e+01

----------------------------Distribution of species----------------------------

                                               Log       Log       Log    mole V
   Species          Molality    Activity  Molality  Activity     Gamma   cm³/mol

   OH-             6.288e-08   4.019e-08    -7.201    -7.396    -0.194     -4.43
   H+              5.927e-08   4.558e-08    -7.227    -7.341    -0.114      0.00
   H2O             5.551e+01   9.827e-01     1.744    -0.008     0.000     18.02
Cl            5.079e-01
   Cl-             5.079e-01   3.335e-01    -0.294    -0.477    -0.183     17.54
   HCl             3.605e-09   5.929e-09    -8.443    -8.227     0.216     18.45
H(0)          1.771e-18
   H2              8.854e-19   1.001e-18   -18.053   -18.000     0.053     13.02
Na            5.079e-01
   Na+             5.079e-01   3.685e-01    -0.294    -0.434    -0.139     -1.92
O(0)          0.000e+00
   O2              0.000e+00   0.000e+00   -63.579   -63.528     0.051     28.29

------------------------------Saturation indices-------------------------------

  Phase               SI** log IAP   log K(278 K,   1 atm)

  H2(g)           -14.95    -18.00   -3.05  H2
  H2O(g)           -2.06     -0.01    2.06  H2O
  Halite           -2.46     -0.91    1.55  NaCl
  O2(g)           -60.81    -63.53   -2.71  O2

**For a gas, SI = log10(fugacity). Fugacity = pressure * phi / 1 atm.
  For ideal gases, phi = 1.

Reaction step 21.

Using solution 1.	
Using temperature 1.	
Using pressure 1.	
Using reaction 1.	

Reaction 1.	

	  6.556e-01 moles of the following reaction have been added:

	                 Relative
	Reactant            moles

	NaCl                 1.00000

	                 Relative
	Element             moles
	Cl                   1.00000
	Na                   1.00000

-----------------------------Solution composition------------------------------

	Elements           Molality       Moles

	Cl                6.556e-01   6.556e-01
	Na                6.556e-01   6.556e-01

----------------------------Description of solution----------------------------

                                       pH  =   7.339      Charge balance
                                       pe  =  -0.540      Adjusted to redox equilibrium
      Specific Conductance (µS/cm,   5°C)  = 36829
                          Density (g/cm³)  =   1.02760
                               Volume (L)  =   1.01042
                        Viscosity (mPa s)  =   1.59037
                        Activity of water  =   0.978
                 Ionic strength (mol/kgw)  =   6.556e-01
                       Mass of water (kg)  =   1.000e+00
                 Total alkalinity (eq/kg)  =   3.535e-17
                         Temperature (°C)  =   5.00
                  Electrical balance (eq)  =  -7.981e-13
 Percent error, 100*(Cat-|An|)/(Cat+|An|)  =  -0.00
                               Iterations  =  11
                                  Total H  = 1.110124e+02
                                  Total O  = 5.550622e+01

----------------------------Distribution of species----------------------------

                                               Log       Log       Log    mole V
   Species          Molality    Activity  Molality  Activity     Gamma   cm³/mol

   OH-             6.420e-08   3.975e-08    -7.192    -7.401    -0.208     -4.19
   H+              6.025e-08   4.584e-08    -7.220    -7.339    -0.119      0.00
   H2O             5.551e+01   9.777e-01     1.744    -0.010     0.000     18.02
Cl            6.556e-01
   Cl-             6.556e-01   4.200e-01    -0.183    -0.377    -0.193     17.62
   HCl             3.950e-09   7.510e-09    -8.403    -8.124     0.279     18.45
H(0)          3.786e-17
   H2              1.893e-17   2.218e-17   -16.723   -16.654     0.069     13.02
Na            6.556e-01
   Na+             6.556e-01   4.759e-01    -0.183    -0.322    -0.139     -1.78
O(0)          0.000e+00
   O2              0.000e+00   0.000e+00   -66.290   -66.224     0.066     28.29

------------------------------Saturation indices-------------------------------

  Phase               SI** log IAP   log K(278 K,   1 atm)

  H2(g)           -13.61    -16.65   -3.05  H2
  H2O(g)           -2.07     -0.01    2.06  H2O
  Halite           -2.25     -0.70    1.55  NaCl
  O2(g)           -63.51    -66.22   -2.71  O2

**For a gas, SI = log10(fugacity). Fugacity = pressure * phi / 1 atm.
  For ideal gases, phi = 1.

Reaction step 22.

Using solution 1.	
Using temperature 1.	
Using pressure 1.	
Using reaction 1.	

Reaction 1.	

	  6.844e-01 moles of the following reaction have been added:

	                 Relative
	Reactant            moles

	NaCl                 1.00000

	                 Relative
	Element             moles
	Cl                   1.00000
	Na                   1.00000

-----------------------------Solution composition------------------------------

	Elements           Molality       Moles

	Cl                6.844e-01   6.844e-01
	Na                6.844e-01   6.844e-01

----------------------------Description of solution----------------------------

                                       pH  =   7.338      Charge balance
                                       pe  =  -0.603      Adjusted to redox equilibrium
      Specific Conductance (µS/cm,   5°C)  = 38255
                          Density (g/cm³)  =   1.02878
                               Volume (L)  =   1.01091
                        Viscosity (mPa s)  =   1.59383
                        Activity of water  =   0.977
                 Ionic strength (mol/kgw)  =   6.844e-01
                       Mass of water (kg)  =   1.000e+00
                 Total alkalinity (eq/kg)  =   4.430e-17
                         Temperature (°C)  =   5.00
                  Electrical balance (eq)  =  -4.027e-11
 Percent error, 100*(Cat-|An|)/(Cat+|An|)  =  -0.00
                               Iterations  =  16
                                  Total H  = 1.110124e+02
                                  Total O  = 5.550622e+01

----------------------------Distribution of species----------------------------

                                               Log       Log       Log    mole V
   Species          Molality    Activity  Molality  Activity     Gamma   cm³/mol

   OH-             6.442e-08   3.967e-08    -7.191    -7.402    -0.211     -4.15
   H+              6.042e-08   4.589e-08    -7.219    -7.338    -0.119      0.00
   H2O             5.551e+01   9.767e-01     1.744    -0.010     0.000     18.02
Cl            6.844e-01
   Cl-             6.844e-01   4.367e-01    -0.165    -0.360    -0.195     17.64
   HCl             3.997e-09   7.816e-09    -8.398    -8.107     0.291     18.45
H(0)          5.023e-17
   H2              2.512e-17   2.964e-17   -16.600   -16.528     0.072     13.02
Na            6.844e-01
   Na+             6.844e-01   4.973e-01    -0.165    -0.303    -0.139     -1.75
O(0)          0.000e+00
   O2              0.000e+00   0.000e+00   -66.545   -66.476     0.068     28.29

------------------------------Saturation indices-------------------------------

  Phase               SI** log IAP   log K(278 K,   1 atm)

  H2(g)           -13.48    -16.53   -3.05  H2
  H2O(g)           -2.07     -0.01    2.06  H2O
  Halite           -2.22     -0.66    1.55  NaCl
  O2(g)           -63.76    -66.48   -2.71  O2

**For a gas, SI = log10(fugacity). Fugacity = pressure * phi / 1 atm.
  For ideal gases, phi = 1.

Reaction step 23.

Using solution 1.	
Using temperature 1.	
Using pressure 1.	
Using reaction 1.	

Reaction 1.	

	  7.247e-01 moles of the following reaction have been added:

	                 Relative
	Reactant            moles

	NaCl                 1.00000

	                 Relative
	Element             moles
	Cl                   1.00000
	Na                   1.00000

-----------------------------Solution composition------------------------------

	Elements           Molality       Moles

	Cl                7.247e-01   7.247e-01
	Na                7.247e-01   7.247e-01

----------------------------Description of solution----------------------------

                                       pH  =   7.338      Charge balance
                                       pe  =  -0.616      Adjusted to redox equilibrium
      Specific Conductance (µS/cm,   5°C)  = 40228
                          Density (g/cm³)  =   1.03041
                               Volume (L)  =   1.01159
                        Viscosity (mPa s)  =   1.59873
                        Activity of water  =   0.975
                 Ionic strength (mol/kgw)  =   7.247e-01
                       Mass of water (kg)  =   1.000e+00
                 Total alkalinity (eq/kg)  =   2.803e-17
                         Temperature (°C)  =   5.00
                  Electrical balance (eq)  =  -3.450e-10
 Percent error, 100*(Cat-|An|)/(Cat+|An|)  =  -0.00
                               Iterations  =  20
                                  Total H  = 1.110124e+02
                                  Total O  = 5.550622e+01

----------------------------Distribution of species----------------------------

                                               Log       Log       Log    mole V
   Species          Molality    Activity  Molality  Activity     Gamma   cm³/mol

   OH-             6.470e-08   3.956e-08    -7.189    -7.403    -0.214     -4.08
   H+              6.064e-08   4.596e-08    -7.217    -7.338    -0.120      0.00
   H2O             5.551e+01   9.754e-01     1.744    -0.011     0.000     18.02
Cl            7.247e-01
   Cl-             7.247e-01   4.599e-01    -0.140    -0.337    -0.197     17.66
   HCl             4.052e-09   8.243e-09    -8.392    -8.084     0.308     18.45
H(0)          5.310e-17
   H2              2.655e-17   3.163e-17   -16.576   -16.500     0.076     13.02
Na            7.247e-01
   Na+             7.247e-01   5.273e-01    -0.140    -0.278    -0.138     -1.72
O(0)          0.000e+00
   O2              0.000e+00   0.000e+00   -66.607   -66.534     0.072     28.29

------------------------------Saturation indices-------------------------------

  Phase               SI** log IAP   log K(278 K,   1 atm)

  H2(g)           -13.45    -16.50   -3.05  H2
  H2O(g)           -2.07     -0.01    2.06  H2O
  Halite           -2.17     -0.62    1.55  NaCl
  O2(g)           -63.82    -66.53   -2.71  O2

**For a gas, SI = log10(fugacity). Fugacity = pressure * phi / 1 atm.
  For ideal gases, phi = 1.

Reaction step 24.

Using solution 1.	
Using temperature 1.	
Using pressure 1.	
Using reaction 1.	

Reaction 1.	

	  7.875e-01 moles of the following reaction have been added:

	                 Relative
	Reactant            moles

	NaCl                 1.00000

	                 Relative
	Element             moles
	Cl                   1.00000
	Na                   1.00000

-----------------------------Solution composition------------------------------

	Elements           Molality       Moles

	Cl                7.875e-01   7.875e-01
	Na                7.875e-01   7.875e-01

----------------------------Description of solution----------------------------

                                       pH  =   7.337      Charge balance
                                       pe  =  -0.527      Adjusted to redox equilibrium
      Specific Conductance (µS/cm,   5°C)  = 43266
                          Density (g/cm³)  =   1.03295
                               Volume (L)  =   1.01266
                        Viscosity (mPa s)  =   1.60652
                        Activity of water  =   0.973
                 Ionic strength (mol/kgw)  =   7.875e-01
                       Mass of water (kg)  =   1.000e+00
                 Total alkalinity (eq/kg)  =   1.601e-17
                         Temperature (°C)  =   5.00
                  Electrical balance (eq)  =  -8.169e-11
 Percent error, 100*(Cat-|An|)/(Cat+|An|)  =  -0.00
                               Iterations  =  30
                                  Total H  = 1.110124e+02
                                  Total O  = 5.550622e+01

----------------------------Distribution of species----------------------------

                                               Log       Log       Log    mole V
   Species          Molality    Activity  Molality  Activity     Gamma   cm³/mol

   OH-             6.509e-08   3.939e-08    -7.186    -7.405    -0.218     -3.99
   H+              6.097e-08   4.605e-08    -7.215    -7.337    -0.122      0.00
   H2O             5.551e+01   9.732e-01     1.744    -0.012     0.000     18.02
Cl            7.875e-01
   Cl-             7.875e-01   4.960e-01    -0.104    -0.305    -0.201     17.69
   HCl             4.118e-09   8.909e-09    -8.385    -8.050     0.335     18.45
H(0)          3.478e-17
   H2              1.739e-17   2.104e-17   -16.760   -16.677     0.083     13.02
Na            7.875e-01
   Na+             7.875e-01   5.747e-01    -0.104    -0.241    -0.137     -1.66
O(0)          0.000e+00
   O2              0.000e+00   0.000e+00   -66.261   -66.182     0.079     28.29

------------------------------Saturation indices-------------------------------

  Phase               SI** log IAP   log K(278 K,   1 atm)

  H2(g)           -13.63    -16.68   -3.05  H2
  H2O(g)           -2.07     -0.01    2.06  H2O
  Halite           -2.10     -0.55    1.55  NaCl
  O2(g)           -63.47    -66.18   -2.71  O2

**For a gas, SI = log10(fugacity). Fugacity = pressure * phi / 1 atm.
  For ideal gases, phi = 1.

Reaction step 25.

Using solution 1.	
Using temperature 1.	
Using pressure 1.	
Using reaction 1.	

Reaction 1.	

	  8.000e-01 moles of the following reaction have been added:

	                 Relative
	Reactant            moles

	NaCl                 1.00000

	                 Relative
	Element             moles
	Cl                   1.00000
	Na                   1.00000

-----------------------------Solution composition------------------------------

	Elements           Molality       Moles

	Cl                8.000e-01   8.000e-01
	Na                8.000e-01   8.000e-01

----------------------------Description of solution----------------------------

                                       pH  =   7.337      Charge balance
                                       pe  =  -0.276      Adjusted to redox equilibrium
      Specific Conductance (µS/cm,   5°C)  = 43864
                          Density (g/cm³)  =   1.03345
                               Volume (L)  =   1.01287
                        Viscosity (mPa s)  =   1.60809
                        Activity of water  =   0.973
                 Ionic strength (mol/kgw)  =   8.000e-01
                       Mass of water (kg)  =   1.000e+00
                 Total alkalinity (eq/kg)  =  -1.644e-17
                         Temperature (°C)  =   5.00
                  Electrical balance (eq)  =  -1.352e-09
 Percent error, 100*(Cat-|An|)/(Cat+|An|)  =  -0.00
                               Iterations  =  11
                                  Total H  = 1.110124e+02
                                  Total O  = 5.550622e+01

----------------------------Distribution of species----------------------------

                                               Log       Log       Log    mole V
   Species          Molality    Activity  Molality  Activity     Gamma   cm³/mol

   OH-             6.516e-08   3.936e-08    -7.186    -7.405    -0.219     -3.97
   H+              6.103e-08   4.607e-08    -7.214    -7.337    -0.122      0.00
   H2O             5.551e+01   9.728e-01     1.744    -0.012     0.000     18.02
Cl            8.000e-01
   Cl-             8.000e-01   5.032e-01    -0.097    -0.298    -0.201     17.70
   HCl             4.128e-09   9.042e-09    -8.384    -8.044     0.340     18.45
H(0)          1.095e-17
   H2              5.473e-18   6.641e-18   -17.262   -17.178     0.084     13.02
Na            8.000e-01
   Na+             8.000e-01   5.842e-01    -0.097    -0.233    -0.136     -1.65
O(0)          0.000e+00
   O2              0.000e+00   0.000e+00   -65.261   -65.181     0.080     28.29

------------------------------Saturation indices-------------------------------

[...]
H(0)          4.338e-16
   H2              2.169e-16   5.931e-16   -15.664   -15.227     0.437     18.14
Na            4.161e+00
   Na+             4.161e+00   4.422e+00     0.619     0.646     0.026      1.67
O(0)          0.000e+00
   O2              0.000e+00   0.000e+00   -44.427   -44.011     0.416     33.72

------------------------------Saturation indices-------------------------------

  Phase               SI** log IAP   log K(368 K,   1 atm)

  H2(g)           -12.13    -15.23   -3.10  H2
  H2O(g)           -0.15     -0.07    0.08  H2O
  Halite           -0.62      0.99    1.62  NaCl
  O2(g)           -40.90    -44.01   -3.11  O2

**For a gas, SI = log10(fugacity). Fugacity = pressure * phi / 1 atm.
  For ideal gases, phi = 1.

------------------
End of simulation.
------------------

------------------------------------
Reading input data for simulation 7.
------------------------------------

	USE solution 1
	REACTION_TEMPERATURE
	 125.000000
	REACTION_PRESSURE
	 0.000000
	REACTION
	 NaCl 1
	0 0.706900 1.000000 2.000000 2.500000 3.534500
	USER_GRAPH
	-headings 125oC
	10 data 0, 16.632029, 17.160993, 18.622642, 19.141030, 19.404106,
	20 dim d(6)
	30 read d(1), d(2), d(3), d(4), d(5), d(6),
	40 if step_no = 1 then put(rho, 10)
	50 if step_no > 1 then Vmol = (1e3 + tot("Cl") * 58.4428) / (tot("Cl") * rho) - 1e3 / (tot("Cl") * get(10))
	60 if step_no = 1 then dif = 0 else dif = Vmol - d(step_no)
	62 if step_no = 1 then goto 90
	70 plot_xy tot("Na"), d(step_no), line_w = 0, color = Brown #aph_x tot("Na") # dif, str$(tc), str$(pressure), str$(step_no + get(1))
	80 plot_xy tot("Na"), Vmol, symbol = None, color = Brown #step_no = 6 then put(step_no + get(1), 1)
	90 end
	END
-----------------------------------------
Beginning of batch-reaction calculations.
-----------------------------------------

Reaction step 1.

Using solution 1.	
Using temperature 1.	
Using pressure 1.	
Using reaction 1.	

Reaction 1.	

	  0.000e+00 moles of the following reaction have been added:

	                 Relative
	Reactant            moles

	NaCl                 1.00000

	                 Relative
	Element             moles
	Cl                   1.00000
	Na                   1.00000

-----------------------------Solution composition------------------------------

	Elements           Molality       Moles

	Pure water     

----------------------------Description of solution----------------------------

                                       pH  =   5.945      Charge balance
                                       pe  =   0.727      Adjusted to redox equilibrium
      Specific Conductance (µS/cm, 125°C)  = 1
                          Density (g/cm³)  =   0.93903
                               Volume (L)  =   1.06493
                        Viscosity (mPa s)  =   0.22210
                        Activity of water  =   1.000
                 Ionic strength (mol/kgw)  =   1.137e-06
                       Mass of water (kg)  =   1.000e+00
                 Total alkalinity (eq/kg)  =   3.041e-17
                         Temperature (°C)  = 125.00
                           Pressure (atm)  =  2.29
                  Electrical balance (eq)  =  -3.041e-17
 Percent error, 100*(Cat-|An|)/(Cat+|An|)  =  -0.00
                               Iterations  =   9
                                  Total H  = 1.110124e+02
                                  Total O  = 5.550622e+01

----------------------------Distribution of species----------------------------

                                               Log       Log       Log    mole V
   Species          Molality    Activity  Molality  Activity     Gamma   cm³/mol

   OH-             1.137e-06   1.135e-06    -5.944    -5.945    -0.001     -8.39
   H+              1.137e-06   1.135e-06    -5.944    -5.945    -0.001      0.00
   H2O             5.551e+01   1.000e+00     1.744    -0.000     0.000     19.19
H(0)          3.040e-17
   H2              1.520e-17   1.520e-17   -16.818   -16.818     0.000     19.23
O(0)          5.536e-36
   O2              2.768e-36   2.768e-36   -35.558   -35.558     0.000     34.83

------------------------------Saturation indices-------------------------------

  Phase               SI** log IAP   log K(398 K,   2 atm)

  H2(g)           -13.79    -16.82   -3.03  H2
  H2O(g)            0.35     -0.00   -0.35  H2O
  O2(g)           -32.47    -35.56   -3.09  O2

**For a gas, SI = log10(fugacity). Fugacity = pressure * phi / 1 atm.
  For ideal gases, phi = 1.

Reaction step 2.

Using solution 1.	
Using temperature 1.	
Using pressure 1.	
Using reaction 1.	

Reaction 1.	

	  7.069e-01 moles of the following reaction have been added:

	                 Relative
	Reactant            moles

	NaCl                 1.00000

	                 Relative
	Element             moles
	Cl                   1.00000
	Na                   1.00000

-----------------------------Solution composition------------------------------

	Elements           Molality       Moles

	Cl                7.069e-01   7.069e-01
	Na                7.069e-01   7.069e-01

----------------------------Description of solution----------------------------

                                       pH  =   5.897      Charge balance
                                       pe  =   5.693      Adjusted to redox equilibrium
      Specific Conductance (µS/cm, 125°C)  = 183399
                          Density (g/cm³)  =   0.96664
                               Volume (L)  =   1.07725
                        Viscosity (mPa s)  =   0.24416
                        Activity of water  =   0.976
                 Ionic strength (mol/kgw)  =   7.069e-01
                       Mass of water (kg)  =   1.000e+00
                 Total alkalinity (eq/kg)  =  -7.807e-17
                         Temperature (°C)  = 125.00
                           Pressure (atm)  =  2.24
                  Electrical balance (eq)  =  -1.229e-15
 Percent error, 100*(Cat-|An|)/(Cat+|An|)  =  -0.00
                               Iterations  =   8
                                  Total H  = 1.110124e+02
                                  Total O  = 5.550622e+01

----------------------------Distribution of species----------------------------

                                               Log       Log       Log    mole V
   Species          Molality    Activity  Molality  Activity     Gamma   cm³/mol

   OH-             1.833e-06   9.917e-07    -5.737    -6.004    -0.267     -5.34
   H+              1.786e-06   1.268e-06    -5.748    -5.897    -0.149      0.00
   H2O             5.551e+01   9.760e-01     1.744    -0.011     0.000     19.19
Cl            7.069e-01
   Cl-             7.069e-01   3.977e-01    -0.151    -0.400    -0.250     15.96
   HCl             4.675e-08   9.346e-08    -7.330    -7.029     0.301     23.52
H(0)          3.742e-27
   H2              1.871e-27   2.220e-27   -26.728   -26.654     0.074     19.23
Na            7.069e-01
   Na+             7.069e-01   4.584e-01    -0.151    -0.339    -0.188      1.45
O(0)          2.102e-16
   O2              1.051e-16   1.237e-16   -15.978   -15.908     0.071     34.83

------------------------------Saturation indices-------------------------------

  Phase               SI** log IAP   log K(398 K,   2 atm)

  H2(g)           -23.62    -26.65   -3.03  H2
  H2O(g)            0.34     -0.01   -0.35  H2O
  Halite           -2.37     -0.74    1.63  NaCl
  O2(g)           -12.82    -15.91   -3.09  O2

**For a gas, SI = log10(fugacity). Fugacity = pressure * phi / 1 atm.
  For ideal gases, phi = 1.

Reaction step 3.

Using solution 1.	
Using temperature 1.	
Using pressure 1.	
Using reaction 1.	

Reaction 1.	

	  1.000e+00 moles of the following reaction have been added:

	                 Relative
	Reactant            moles

	NaCl                 1.00000

	                 Relative
	Element             moles
	Cl                   1.00000
	Na                   1.00000

-----------------------------Solution composition------------------------------

	Elements           Molality       Moles

	Cl                1.000e+00   1.000e+00
	Na                1.000e+00   1.000e+00

----------------------------Description of solution----------------------------

                                       pH  =   5.891      Charge balance
                                       pe  =   5.692      Adjusted to redox equilibrium
      Specific Conductance (µS/cm, 125°C)  = 244999
                          Density (g/cm³)  =   0.97750
                               Volume (L)  =   1.08281
                        Viscosity (mPa s)  =   0.25312
                        Activity of water  =   0.966
                 Ionic strength (mol/kgw)  =   1.000e+00
                       Mass of water (kg)  =   1.000e+00
                 Total alkalinity (eq/kg)  =   5.049e-16
                         Temperature (°C)  = 125.00
                           Pressure (atm)  =  2.21
                  Electrical balance (eq)  =  -2.089e-09
 Percent error, 100*(Cat-|An|)/(Cat+|An|)  =  -0.00
                               Iterations  =   6
                                  Total H  = 1.110124e+02
                                  Total O  = 5.550622e+01

----------------------------Distribution of species----------------------------

                                               Log       Log       Log    mole V
   Species          Molality    Activity  Molality  Activity     Gamma   cm³/mol

   OH-             1.886e-06   9.687e-07    -5.724    -6.014    -0.289     -4.59
   H+              1.838e-06   1.285e-06    -5.736    -5.891    -0.155      0.00
   H2O             5.551e+01   9.660e-01     1.744    -0.015     0.000     19.19
Cl            1.000e+00
   Cl-             1.000e+00   5.411e-01    -0.000    -0.267    -0.267     16.33
   HCl             4.836e-08   1.288e-07    -7.316    -6.890     0.426     23.52
H(0)          3.593e-27
   H2              1.797e-27   2.288e-27   -26.746   -26.641     0.105     19.23
Na            1.000e+00
   Na+             1.000e+00   6.556e-01     0.000    -0.183    -0.183      1.54
O(0)          1.811e-16
   O2              9.057e-17   1.140e-16   -16.043   -15.943     0.100     34.83

------------------------------Saturation indices-------------------------------

  Phase               SI** log IAP   log K(398 K,   2 atm)

  H2(g)           -23.61    -26.64   -3.03  H2
  H2O(g)            0.34     -0.02   -0.35  H2O
  Halite           -2.08     -0.45    1.63  NaCl
  O2(g)           -12.85    -15.94   -3.09  O2

**For a gas, SI = log10(fugacity). Fugacity = pressure * phi / 1 atm.
  For ideal gases, phi = 1.

Reaction step 4.

Using solution 1.	
Using temperature 1.	
Using pressure 1.	
Using reaction 1.	

Reaction 1.	

	  2.000e+00 moles of the following reaction have been added:

	                 Relative
	Reactant            moles

	NaCl                 1.00000

	                 Relative
	Element             moles
	Cl                   1.00000
	Na                   1.00000

-----------------------------Solution composition------------------------------

	Elements           Molality       Moles

	Cl                2.000e+00   2.000e+00
	Na                2.000e+00   2.000e+00

----------------------------Description of solution----------------------------

                                       pH  =   5.881      Charge balance
                                       pe  =   5.920      Adjusted to redox equilibrium
      Specific Conductance (µS/cm, 125°C)  = 417677
                          Density (g/cm³)  =   1.01272
                               Volume (L)  =   1.10286
                        Viscosity (mPa s)  =   0.28514
                        Activity of water  =   0.932
                 Ionic strength (mol/kgw)  =   2.000e+00
                       Mass of water (kg)  =   1.000e+00
                 Total alkalinity (eq/kg)  =   8.772e-11
                         Temperature (°C)  = 125.00
                           Pressure (atm)  =  2.13
                  Electrical balance (eq)  =  -3.884e-11
 Percent error, 100*(Cat-|An|)/(Cat+|An|)  =  -0.00
                               Iterations  =   5
                                  Total H  = 1.110124e+02
                                  Total O  = 5.550622e+01

----------------------------Distribution of species----------------------------

                                               Log       Log       Log    mole V
   Species          Molality    Activity  Molality  Activity     Gamma   cm³/mol

   OH-             1.968e-06   9.132e-07    -5.706    -6.039    -0.334     -2.38
   H+              1.933e-06   1.315e-06    -5.714    -5.881    -0.167      0.00
   H2O             5.551e+01   9.320e-01     1.744    -0.031     0.000     19.19
Cl            2.000e+00
   Cl-             2.000e+00   1.021e+00     0.301     0.009    -0.292     17.24
   HCl             3.505e-08   2.488e-07    -7.455    -6.604     0.851     23.52
H(0)          1.036e-27
   H2              5.180e-28   8.400e-28   -27.286   -27.076     0.210     19.23
Na            2.000e+00
   Na+             2.000e+00   1.456e+00     0.301     0.163    -0.138      1.72
O(0)          9.937e-16
   O2              4.968e-16   7.874e-16   -15.304   -15.104     0.200     34.83

------------------------------Saturation indices-------------------------------

  Phase               SI** log IAP   log K(398 K,   2 atm)

  H2(g)           -24.05    -27.08   -3.03  H2
  H2O(g)            0.32     -0.03   -0.35  H2O
  Halite           -1.46      0.17    1.63  NaCl
  O2(g)           -12.01    -15.10   -3.09  O2

**For a gas, SI = log10(fugacity). Fugacity = pressure * phi / 1 atm.
  For ideal gases, phi = 1.

Reaction step 5.

Using solution 1.	
Using temperature 1.	
Using pressure 1.	
Using reaction 1.	

Reaction 1.	

	  2.500e+00 moles of the following reaction have been added:

	                 Relative
	Reactant            moles

	NaCl                 1.00000

	                 Relative
	Element             moles
	Cl                   1.00000
	Na                   1.00000

-----------------------------Solution composition------------------------------

	Elements           Molality       Moles

	Cl                2.500e+00   2.500e+00
	Na                2.500e+00   2.500e+00

----------------------------Description of solution----------------------------

                                       pH  =   5.879      Charge balance
                                       pe  =   5.871      Adjusted to redox equilibrium
      Specific Conductance (µS/cm, 125°C)  = 486288
                          Density (g/cm³)  =   1.02943
                               Volume (L)  =   1.11334
                        Viscosity (mPa s)  =   0.30210
                        Activity of water  =   0.915
                 Ionic strength (mol/kgw)  =   2.500e+00
                       Mass of water (kg)  =   1.000e+00
                 Total alkalinity (eq/kg)  =   1.309e-11
                         Temperature (°C)  = 125.00
                           Pressure (atm)  =  2.10
                  Electrical balance (eq)  =   2.699e-10
 Percent error, 100*(Cat-|An|)/(Cat+|An|)  =   0.00
                               Iterations  =   5
                                  Total H  = 1.110124e+02
                                  Total O  = 5.550622e+01

----------------------------Distribution of species----------------------------

                                               Log       Log       Log    mole V
   Species          Molality    Activity  Molality  Activity     Gamma   cm³/mol

   OH-             1.984e-06   8.923e-07    -5.702    -6.050    -0.347     -1.38
   H+              1.957e-06   1.321e-06    -5.708    -5.879    -0.171      0.00
   H2O             5.551e+01   9.150e-01     1.744    -0.039     0.000     19.19
Cl            2.500e+00
   Cl-             2.500e+00   1.264e+00     0.398     0.102    -0.296     17.59
   HCl             2.670e-08   3.094e-07    -7.573    -6.509     1.064     23.52
H(0)          1.160e-27
   H2              5.800e-28   1.062e-27   -27.237   -26.974     0.263     19.23
Na            2.500e+00
   Na+             2.500e+00   1.950e+00     0.398     0.290    -0.108      1.78
O(0)          5.346e-16
   O2              2.673e-16   4.753e-16   -15.573   -15.323     0.250     34.83

------------------------------Saturation indices-------------------------------

  Phase               SI** log IAP   log K(398 K,   2 atm)

  H2(g)           -23.95    -26.97   -3.03  H2
  H2O(g)            0.31     -0.04   -0.35  H2O
  Halite           -1.24      0.39    1.63  NaCl
  O2(g)           -12.23    -15.32   -3.09  O2

**For a gas, SI = log10(fugacity). Fugacity = pressure * phi / 1 atm.
  For ideal gases, phi = 1.

Reaction step 6.

Using solution 1.	
Using temperature 1.	
Using pressure 1.	
Using reaction 1.	

Reaction 1.	

	  3.534e+00 moles of the following reaction have been added:

	                 Relative
	Reactant            moles

	NaCl                 1.00000

	                 Relative
	Element             moles
	Cl                   1.00000
	Na                   1.00000

-----------------------------Solution composition------------------------------

	Elements           Molality       Moles

	Cl                3.535e+00   3.535e+00
	Na                3.535e+00   3.535e+00

----------------------------Description of solution----------------------------

                                       pH  =   5.878      Charge balance
                                       pe  =   5.942      Adjusted to redox equilibrium
      Specific Conductance (µS/cm, 125°C)  = 598534
                          Density (g/cm³)  =   1.06235
                               Volume (L)  =   1.13576
                        Viscosity (mPa s)  =   0.33939
                        Activity of water  =   0.880
                 Ionic strength (mol/kgw)  =   3.535e+00
                       Mass of water (kg)  =   1.000e+00
                 Total alkalinity (eq/kg)  =   8.062e-11
                         Temperature (°C)  = 125.00
                           Pressure (atm)  =  2.02
                  Electrical balance (eq)  =   1.505e-10
 Percent error, 100*(Cat-|An|)/(Cat+|An|)  =   0.00
                               Iterations  =   5
                                  Total H  = 1.110124e+02
                                  Total O  = 5.550622e+01

----------------------------Distribution of species----------------------------

                                               Log       Log       Log    mole V
   Species          Molality    Activity  Molality  Activity     Gamma   cm³/mol

   OH-             1.995e-06   8.568e-07    -5.700    -6.067    -0.367      0.56
   H+              1.981e-06   1.323e-06    -5.703    -5.878    -0.175      0.00
   H2O             5.551e+01   8.798e-01     1.744    -0.056     0.000     19.19
Cl            3.535e+00
   Cl-             3.535e+00   1.781e+00     0.548     0.251    -0.298     18.18
   HCl             1.367e-08   4.366e-07    -7.864    -6.360     1.504     23.52
H(0)          6.531e-28
   H2              3.266e-28   7.675e-28   -27.486   -27.115     0.371     19.23
Na            3.535e+00
   Na+             3.535e+00   3.229e+00     0.548     0.509    -0.039      1.86
O(0)          7.452e-16
   O2              3.726e-16   8.408e-16   -15.429   -15.075     0.353     34.83

------------------------------Saturation indices-------------------------------

  Phase               SI** log IAP   log K(398 K,   2 atm)

  H2(g)           -24.09    -27.11   -3.03  H2
  H2O(g)            0.30     -0.06   -0.35  H2O
  Halite           -0.87      0.76    1.63  NaCl
  O2(g)           -11.98    -15.08   -3.09  O2

**For a gas, SI = log10(fugacity). Fugacity = pressure * phi / 1 atm.
  For ideal gases, phi = 1.

------------------
End of simulation.
------------------

------------------------------------
Reading input data for simulation 8.
------------------------------------

