WARNING: Database file from DATABASE keyword is used; command line argument ignored.
   Input file: Vm_Na2SO4_sol
  Output file: Vm_Na2SO4_sol.out
Database file: ../database/phreeqc.dat

------------------
Reading data base.
------------------

	SOLUTION_MASTER_SPECIES
	SOLUTION_SPECIES
	PHASES
	GAS_BINARY_PARAMETERS
	EXCHANGE_MASTER_SPECIES
	EXCHANGE_SPECIES
	SURFACE_MASTER_SPECIES
	SURFACE_SPECIES
	MEAN_GAMMAS
	RATES
	END
------------------------------------
Reading input data for simulation 1.
------------------------------------

	DATABASE ../database/phreeqc.dat
	SELECTED_OUTPUT 101
	    file                 Vm_Na2SO4_sol_101.sel
	USER_PUNCH 101
	    headings Mu SC
	    start
	10 PUNCH STR_F$(MU, 20, 12)
	20 PUNCH STR_F$(SC, 20, 10)
	    end
	SOLUTION 1
	 pH 7 charge
	END
-------------------------------------------
Beginning of initial solution calculations.
-------------------------------------------

Initial solution 1.	

-----------------------------Solution composition------------------------------

	Elements           Molality       Moles

	Pure water     

----------------------------Description of solution----------------------------

                                       pH  =   6.997      Charge balance
                                       pe  =   4.000    
      Specific Conductance (µS/cm,  25°C)  = 0
                          Density (g/cm³)  =   0.99704
                               Volume (L)  =   1.00297
                        Viscosity (mPa s)  =   0.89002
                        Activity of water  =   1.000
                 Ionic strength (mol/kgw)  =   1.006e-07
                       Mass of water (kg)  =   1.000e+00
                 Total alkalinity (eq/kg)  =   3.040e-17
                         Temperature (°C)  =  25.00
                  Electrical balance (eq)  =  -3.040e-17
 Percent error, 100*(Cat-|An|)/(Cat+|An|)  =  -0.00
                               Iterations  =   2
                                  Total H  = 1.110124e+02
                                  Total O  = 5.550622e+01

----------------------------Distribution of species----------------------------

                                               Log       Log       Log    mole V
   Species          Molality    Activity  Molality  Activity     Gamma   cm³/mol

   OH-             1.006e-07   1.006e-07    -6.997    -6.997    -0.000     -4.14
   H+              1.006e-07   1.006e-07    -6.997    -6.997    -0.000      0.00
   H2O             5.551e+01   1.000e+00     1.744    -0.000     0.000     18.07
H(0)          1.433e-25
   H2              7.166e-26   7.166e-26   -25.145   -25.145     0.000     14.99
O(0)          0.000e+00
   O2              0.000e+00   0.000e+00   -42.073   -42.073     0.000     30.40

------------------------------Saturation indices-------------------------------

  Phase               SI** log IAP   log K(298 K,   1 atm)

  H2(g)           -22.05    -25.14   -3.10  H2
  H2O(g)           -1.50     -0.00    1.50  H2O
  O2(g)           -39.18    -42.07   -2.89  O2

**For a gas, SI = log10(fugacity). Fugacity = pressure * phi / 1 atm.
  For ideal gases, phi = 1.

------------------
End of simulation.
------------------

------------------------------------
Reading input data for simulation 2.
------------------------------------

	USE solution 1
	REACTION_TEMPERATURE
	 5.000000
	REACTION_PRESSURE
	 1.000000
	REACTION
	 Na2SO4 1
	0 0.031780 0.050500 0.055530 0.163730 0.199510 0.301820 0.502080 0.567600 0.650000 0.701890 1.333400
	USER_GRAPH
	 -headings 5.oC
	-axis_titles "Na2SO4 / (mol/kg H2O)" "Na2SO4 molar volume / (cm3/mol)"
	10 data 0, 6.658542, 7.745483, 7.906879, 10.234285, 10.964062, 12.578614, 15.119713, 15.818199, 14.088535, 17.141519, 22.311329,
	20 dim d(12)
	30 read d(1), d(2), d(3), d(4), d(5), d(6), d(7), d(8), d(9), d(10), d(11), d(12),
	40 if step_no = 1 then put(rho, 10)
	50 if step_no > 1 then Vmol = (1e3 + tot("S(6)") * 142.0436) / (tot("S(6)") * rho) - 1e3 / (tot("S(6)") * get(10))
	60 if step_no = 1 then dif = 0 else dif = Vmol - d(step_no)
	62 if step_no = 1 then goto 90
	70 plot_xy tot("S(6)"), d(step_no), line_w = 0, color = Yellow #aph_x tot("S(6)") # dif, str$(tc), str$(pressure), str$(step_no + get(1))
	80 plot_xy tot("S(6)"), Vmol, symbol = None, color = Yellow #step_no = 264 then put(step_no + get(1), 1)
	90 end
	END
-----------------------------------------
Beginning of batch-reaction calculations.
-----------------------------------------

Reaction step 1.

Using solution 1.	
Using temperature 1.	
Using pressure 1.	
Using reaction 1.	

Reaction 1.	

	  0.000e+00 moles of the following reaction have been added:

	                 Relative
	Reactant            moles

	Na2SO4               1.00000

	                 Relative
	Element             moles
	Na                   2.00000
	O                    4.00000
	S                    1.00000

-----------------------------Solution composition------------------------------

	Elements           Molality       Moles

	Pure water     

----------------------------Description of solution----------------------------

                                       pH  =   7.365      Charge balance
                                       pe  =  -0.484      Adjusted to redox equilibrium
      Specific Conductance (µS/cm,   5°C)  = 0
                          Density (g/cm³)  =   0.99996
                               Volume (L)  =   1.00004
                        Viscosity (mPa s)  =   1.51818
                        Activity of water  =   1.000
                 Ionic strength (mol/kgw)  =   4.318e-08
                       Mass of water (kg)  =   1.000e+00
                 Total alkalinity (eq/kg)  =   3.041e-17
                         Temperature (°C)  =   5.00
                  Electrical balance (eq)  =  -3.041e-17
 Percent error, 100*(Cat-|An|)/(Cat+|An|)  =  -0.00
                               Iterations  =   8
                                  Total H  = 1.110124e+02
                                  Total O  = 5.550622e+01

----------------------------Distribution of species----------------------------

                                               Log       Log       Log    mole V
   Species          Molality    Activity  Molality  Activity     Gamma   cm³/mol

   OH-             4.318e-08   4.317e-08    -7.365    -7.365    -0.000     -5.54
   H+              4.318e-08   4.317e-08    -7.365    -7.365    -0.000      0.00
   H2O             5.551e+01   1.000e+00     1.744    -0.000     0.000     18.02
H(0)          3.040e-17
   H2              1.520e-17   1.520e-17   -16.818   -16.818     0.000     13.02
O(0)          0.000e+00
   O2              0.000e+00   0.000e+00   -65.876   -65.876     0.000     28.29

------------------------------Saturation indices-------------------------------

  Phase               SI** log IAP   log K(278 K,   1 atm)

  H2(g)           -13.77    -16.82   -3.05  H2
  H2O(g)           -2.06     -0.00    2.06  H2O
  O2(g)           -63.16    -65.88   -2.71  O2

**For a gas, SI = log10(fugacity). Fugacity = pressure * phi / 1 atm.
  For ideal gases, phi = 1.

Reaction step 2.

Using solution 1.	
Using temperature 1.	
Using pressure 1.	
Using reaction 1.	

Reaction 1.	

	  3.178e-02 moles of the following reaction have been added:

	                 Relative
	Reactant            moles

	Na2SO4               1.00000

	                 Relative
	Element             moles
	Na                   2.00000
	O                    4.00000
	S                    1.00000

-----------------------------Solution composition------------------------------

	Elements           Molality       Moles

	Na                6.356e-02   6.356e-02
	S                 3.178e-02   3.178e-02

----------------------------Description of solution----------------------------

                                       pH  =   7.471      Charge balance
                                       pe  =  -1.667      Adjusted to redox equilibrium
      Specific Conductance (µS/cm,   5°C)  = 3753
                          Density (g/cm³)  =   1.00427
                               Volume (L)  =   1.00025
                        Viscosity (mPa s)  =   1.54172
                        Activity of water  =   0.998
                 Ionic strength (mol/kgw)  =   8.623e-02
                       Mass of water (kg)  =   1.000e+00
                 Total alkalinity (eq/kg)  =   3.533e-17
                         Temperature (°C)  =   5.00
                  Electrical balance (eq)  =   3.213e-15
 Percent error, 100*(Cat-|An|)/(Cat+|An|)  =   0.00
                               Iterations  =  14
                                  Total H  = 1.110124e+02
                                  Total O  = 5.563334e+01

----------------------------Distribution of species----------------------------

                                               Log       Log       Log    mole V
   Species          Molality    Activity  Molality  Activity     Gamma   cm³/mol

   OH-             7.077e-08   5.509e-08    -7.150    -7.259    -0.109     -5.22
   H+              4.043e-08   3.378e-08    -7.393    -7.471    -0.078      0.00
   H2O             5.551e+01   9.985e-01     1.744    -0.001     0.000     18.02
H(0)          4.235e-15
   H2              2.117e-15   2.162e-15   -14.674   -14.665     0.009     13.02
Na            6.356e-02
   Na+             5.901e-02   4.716e-02    -1.229    -1.326    -0.097     -2.55
   NaSO4-          4.553e-03   3.621e-03    -2.342    -2.441    -0.100     16.77
   Na2SO4          9.296e-09   9.461e-09    -8.032    -8.024     0.008     61.65
O(0)          0.000e+00
   O2              0.000e+00   0.000e+00   -70.192   -70.183     0.009     28.29
S(-2)         1.708e-19
   HS-             1.167e-19   9.083e-20   -18.933   -19.042    -0.109     19.29
   H2S             5.414e-20   5.523e-20   -19.266   -19.258     0.009     29.51
   S-2             1.848e-25   7.479e-26   -24.733   -25.126    -0.393     (0)  
   (H2S)2          0.000e+00   0.000e+00   -40.056   -40.048     0.009     30.79
S(6)          3.178e-02
   SO4-2           2.723e-02   1.093e-02    -1.565    -1.961    -0.396     10.50
   NaSO4-          4.553e-03   3.621e-03    -2.342    -2.441    -0.100     16.77
   HSO4-           3.034e-08   2.413e-08    -7.518    -7.617    -0.099     38.40
   Na2SO4          9.296e-09   9.461e-09    -8.032    -8.024     0.008     61.65

------------------------------Saturation indices-------------------------------

  Phase               SI** log IAP   log K(278 K,   1 atm)

  H2(g)           -11.62    -14.67   -3.05  H2
  H2O(g)           -2.06     -0.00    2.06  H2O
  H2S(g)          -18.52    -26.51   -7.99  H2S
  Mirabilite       -2.53     -4.62   -2.09  Na2SO4:10H2O
  O2(g)           -67.47    -70.18   -2.71  O2
  Sulfur          -13.03     -7.65    5.38  S
  Thenardite       -5.52     -4.61    0.90  Na2SO4

**For a gas, SI = log10(fugacity). Fugacity = pressure * phi / 1 atm.
  For ideal gases, phi = 1.

Reaction step 3.

Using solution 1.	
Using temperature 1.	
Using pressure 1.	
Using reaction 1.	

Reaction 1.	

	  5.050e-02 moles of the following reaction have been added:

	                 Relative
	Reactant            moles

	Na2SO4               1.00000

	                 Relative
	Element             moles
	Na                   2.00000
	O                    4.00000
	S                    1.00000

-----------------------------Solution composition------------------------------

	Elements           Molality       Moles

	Na                1.010e-01   1.010e-01
	S                 5.050e-02   5.050e-02

----------------------------Description of solution----------------------------

                                       pH  =   7.495      Charge balance
                                       pe  =  -1.664      Adjusted to redox equilibrium
      Specific Conductance (µS/cm,   5°C)  = 5666
                          Density (g/cm³)  =   1.00676
                               Volume (L)  =   1.00041
                        Viscosity (mPa s)  =   1.55428
                        Activity of water  =   0.998
                 Ionic strength (mol/kgw)  =   1.329e-01
                       Mass of water (kg)  =   1.000e+00
                 Total alkalinity (eq/kg)  =   2.807e-17
                         Temperature (°C)  =   5.00
                  Electrical balance (eq)  =   1.457e-15
 Percent error, 100*(Cat-|An|)/(Cat+|An|)  =   0.00
                               Iterations  =  14
                                  Total H  = 1.110124e+02
                                  Total O  = 5.570822e+01

----------------------------Distribution of species----------------------------

                                               Log       Log       Log    mole V
   Species          Molality    Activity  Molality  Activity     Gamma   cm³/mol

   OH-             7.795e-08   5.814e-08    -7.108    -7.235    -0.127     -5.11
   H+              3.908e-08   3.198e-08    -7.408    -7.495    -0.087      0.00
   H2O             5.551e+01   9.976e-01     1.744    -0.001     0.000     18.02
H(0)          3.701e-15
   H2              1.850e-15   1.911e-15   -14.733   -14.719     0.014     13.02
Na            1.010e-01
   Na+             9.170e-02   7.109e-02    -1.038    -1.148    -0.111     -2.44
   NaSO4-          9.303e-03   7.171e-03    -2.031    -2.144    -0.113     17.18
   Na2SO4          2.749e-08   2.825e-08    -7.561    -7.549     0.012     61.65
O(0)          0.000e+00
   O2              0.000e+00   0.000e+00   -70.090   -70.077     0.013     28.29
S(-2)         1.314e-19
   HS-             9.275e-20   6.918e-20   -19.033   -19.160    -0.127     19.34
   H2S             3.862e-20   3.982e-20   -19.413   -19.400     0.013     29.51
   S-2             1.705e-25   6.017e-26   -24.768   -25.221    -0.452     (0)  
   (H2S)2          0.000e+00   0.000e+00   -40.345   -40.332     0.013     30.79
S(6)          5.050e-02
   SO4-2           4.120e-02   1.436e-02    -1.385    -1.843    -0.458     10.72
   NaSO4-          9.303e-03   7.171e-03    -2.031    -2.144    -0.113     17.18
   HSO4-           3.887e-08   3.001e-08    -7.410    -7.523    -0.112     38.46
   Na2SO4          2.749e-08   2.825e-08    -7.561    -7.549     0.012     61.65

------------------------------Saturation indices-------------------------------

  Phase               SI** log IAP   log K(278 K,   1 atm)

  H2(g)           -11.67    -14.72   -3.05  H2
  H2O(g)           -2.06     -0.00    2.06  H2O
  H2S(g)          -18.66    -26.66   -7.99  H2S
  Mirabilite       -2.06     -4.15   -2.09  Na2SO4:10H2O
  O2(g)           -67.36    -70.08   -2.71  O2
  Sulfur          -13.12     -7.74    5.38  S
  Thenardite       -5.04     -4.14    0.90  Na2SO4

**For a gas, SI = log10(fugacity). Fugacity = pressure * phi / 1 atm.
  For ideal gases, phi = 1.

Reaction step 4.

Using solution 1.	
Using temperature 1.	
Using pressure 1.	
Using reaction 1.	

Reaction 1.	

	  5.553e-02 moles of the following reaction have been added:

	                 Relative
	Reactant            moles

	Na2SO4               1.00000

	                 Relative
	Element             moles
	Na                   2.00000
	O                    4.00000
	S                    1.00000

-----------------------------Solution composition------------------------------

	Elements           Molality       Moles

	Na                1.111e-01   1.111e-01
	S                 5.553e-02   5.553e-02

----------------------------Description of solution----------------------------

                                       pH  =   7.500      Charge balance
                                       pe  =  -1.793      Adjusted to redox equilibrium
      Specific Conductance (µS/cm,   5°C)  = 6158
                          Density (g/cm³)  =   1.00742
                               Volume (L)  =   1.00046
                        Viscosity (mPa s)  =   1.55766
                        Activity of water  =   0.997
                 Ionic strength (mol/kgw)  =   1.451e-01
                       Mass of water (kg)  =   1.000e+00
                 Total alkalinity (eq/kg)  =   4.540e-17
                         Temperature (°C)  =   5.00
                  Electrical balance (eq)  =   1.388e-17
 Percent error, 100*(Cat-|An|)/(Cat+|An|)  =   0.00
                               Iterations  =  13
                                  Total H  = 1.110124e+02
                                  Total O  = 5.572834e+01

----------------------------Distribution of species----------------------------

                                               Log       Log       Log    mole V
   Species          Molality    Activity  Molality  Activity     Gamma   cm³/mol

   OH-             7.957e-08   5.881e-08    -7.099    -7.231    -0.131     -5.08
   H+              3.880e-08   3.161e-08    -7.411    -7.500    -0.089      0.00
   H2O             5.551e+01   9.974e-01     1.744    -0.001     0.000     18.02
H(0)          6.527e-15
   H2              3.264e-15   3.380e-15   -14.486   -14.471     0.015     13.02
Na            1.111e-01
   Na+             1.003e-01   7.731e-02    -0.999    -1.112    -0.113     -2.42
   NaSO4-          1.074e-02   8.227e-03    -1.969    -2.085    -0.116     17.27
   Na2SO4          3.422e-08   3.524e-08    -7.466    -7.453     0.013     61.65
O(0)          0.000e+00
   O2              0.000e+00   0.000e+00   -70.587   -70.573     0.015     28.29
S(-2)         1.346e-18
   HS-             9.568e-19   7.071e-19   -18.019   -18.151    -0.131     19.36
   H2S             3.891e-19   4.023e-19   -18.410   -18.395     0.015     29.51
   S-2             1.815e-24   6.222e-25   -23.741   -24.206    -0.465     (0)  
   (H2S)2          4.599e-39   4.756e-39   -38.337   -38.323     0.015     30.79
S(6)          5.553e-02
   SO4-2           4.479e-02   1.515e-02    -1.349    -1.820    -0.471     10.78
   NaSO4-          1.074e-02   8.227e-03    -1.969    -2.085    -0.116     17.27
   HSO4-           4.077e-08   3.130e-08    -7.390    -7.504    -0.115     38.47
   Na2SO4          3.422e-08   3.524e-08    -7.466    -7.453     0.013     61.65

------------------------------Saturation indices-------------------------------

  Phase               SI** log IAP   log K(278 K,   1 atm)

  H2(g)           -11.43    -14.47   -3.05  H2
  H2O(g)           -2.06     -0.00    2.06  H2O
  H2S(g)          -17.66    -25.65   -7.99  H2S
  Mirabilite       -1.97     -4.05   -2.09  Na2SO4:10H2O
  O2(g)           -67.86    -70.57   -2.71  O2
  Sulfur          -12.36     -6.98    5.38  S
  Thenardite       -4.95     -4.04    0.90  Na2SO4

**For a gas, SI = log10(fugacity). Fugacity = pressure * phi / 1 atm.
  For ideal gases, phi = 1.

Reaction step 5.

Using solution 1.	
Using temperature 1.	
Using pressure 1.	
Using reaction 1.	

Reaction 1.	

	  1.637e-01 moles of the following reaction have been added:

	                 Relative
	Reactant            moles

	Na2SO4               1.00000

	                 Relative
	Element             moles
	Na                   2.00000
	O                    4.00000
	S                    1.00000

-----------------------------Solution composition------------------------------

	Elements           Molality       Moles

	Na                3.275e-01   3.275e-01
	S                 1.637e-01   1.637e-01

----------------------------Description of solution----------------------------

                                       pH  =   7.556      Charge balance
                                       pe  =  -1.833      Adjusted to redox equilibrium
      Specific Conductance (µS/cm,   5°C)  = 15416
                          Density (g/cm³)  =   1.02146
                               Volume (L)  =   1.00176
                        Viscosity (mPa s)  =   1.63281
                        Activity of water  =   0.993
                 Ionic strength (mol/kgw)  =   3.881e-01
                       Mass of water (kg)  =   1.000e+00
                 Total alkalinity (eq/kg)  =   3.686e-17
                         Temperature (°C)  =   5.00
                  Electrical balance (eq)  =   1.390e-09
 Percent error, 100*(Cat-|An|)/(Cat+|An|)  =   0.00
                               Iterations  =  12
                                  Total H  = 1.110124e+02
                                  Total O  = 5.616114e+01

----------------------------Distribution of species----------------------------

                                               Log       Log       Log    mole V
   Species          Molality    Activity  Molality  Activity     Gamma   cm³/mol

   OH-             1.008e-07   6.661e-08    -6.996    -7.176    -0.180     -4.63
   H+              3.570e-08   2.777e-08    -7.447    -7.556    -0.109      0.00
   H2O             5.551e+01   9.925e-01     1.744    -0.003     0.000     18.02
H(0)          5.698e-15
   H2              2.849e-15   3.129e-15   -14.545   -14.505     0.041     13.02
Na            3.275e-01
   Na+             2.759e-01   2.014e-01    -0.559    -0.696    -0.137     -2.05
   NaSO4-          5.152e-02   3.745e-02    -1.288    -1.427    -0.139     18.72
   Na2SO4          3.862e-07   4.180e-07    -6.413    -6.379     0.034     61.65
O(0)          0.000e+00
   O2              0.000e+00   0.000e+00   -70.549   -70.510     0.039     28.29
S(-2)         1.602e-18
   HS-             1.231e-18   8.130e-19   -17.910   -18.090    -0.180     19.55
   H2S             3.717e-19   4.064e-19   -18.430   -18.391     0.039     29.51
   S-2             3.330e-24   8.142e-25   -23.478   -24.089    -0.612     (0)  
   (H2S)2          4.438e-39   4.852e-39   -38.353   -38.314     0.039     30.79
S(6)          1.637e-01
   SO4-2           1.122e-01   2.647e-02    -0.950    -1.577    -0.627     11.79
   NaSO4-          5.152e-02   3.745e-02    -1.288    -1.427    -0.139     18.72
   Na2SO4          3.862e-07   4.180e-07    -6.413    -6.379     0.034     61.65
   HSO4-           6.514e-08   4.805e-08    -7.186    -7.318    -0.132     38.66

------------------------------Saturation indices-------------------------------

  Phase               SI** log IAP   log K(278 K,   1 atm)

  H2(g)           -11.46    -14.50   -3.05  H2
  H2O(g)           -2.06     -0.00    2.06  H2O
  H2S(g)          -17.65    -25.65   -7.99  H2S
  Mirabilite       -0.91     -3.00   -2.09  Na2SO4:10H2O
  O2(g)           -67.80    -70.51   -2.71  O2
  Sulfur          -12.33     -6.94    5.38  S
  Thenardite       -3.87     -2.97    0.90  Na2SO4

**For a gas, SI = log10(fugacity). Fugacity = pressure * phi / 1 atm.
  For ideal gases, phi = 1.

Reaction step 6.

Using solution 1.	
Using temperature 1.	
Using pressure 1.	
Using reaction 1.	

Reaction 1.	

	  1.995e-01 moles of the following reaction have been added:

	                 Relative
	Reactant            moles

	Na2SO4               1.00000

	                 Relative
	Element             moles
	Na                   2.00000
	O                    4.00000
	S                    1.00000

-----------------------------Solution composition------------------------------

	Elements           Molality       Moles

	Na                3.990e-01   3.990e-01
	S                 1.995e-01   1.995e-01

----------------------------Description of solution----------------------------

                                       pH  =   7.565      Charge balance
                                       pe  =  11.869      Adjusted to redox equilibrium
      Specific Conductance (µS/cm,   5°C)  = 18085
                          Density (g/cm³)  =   1.02601
                               Volume (L)  =   1.00227
                        Viscosity (mPa s)  =   1.65898
                        Activity of water  =   0.991
                 Ionic strength (mol/kgw)  =   4.631e-01
                       Mass of water (kg)  =   1.000e+00
                 Total alkalinity (eq/kg)  =   8.805e-17
                         Temperature (°C)  =   5.00
                  Electrical balance (eq)  =   4.728e-12
 Percent error, 100*(Cat-|An|)/(Cat+|An|)  =   0.00
                               Iterations  =  14
                                  Total H  = 1.110124e+02
                                  Total O  = 5.630426e+01

----------------------------Distribution of species----------------------------

                                               Log       Log       Log    mole V
   Species          Molality    Activity  Molality  Activity     Gamma   cm³/mol

   OH-             1.051e-07   6.792e-08    -6.979    -7.168    -0.189     -4.50
   H+              3.523e-08   2.720e-08    -7.453    -7.565    -0.112      0.00
   H2O             5.551e+01   9.910e-01     1.744    -0.004     0.000     18.02
H(0)          0.000e+00
   H2              0.000e+00   0.000e+00   -41.975   -41.927     0.049     13.02
Na            3.990e-01
   Na+             3.313e-01   2.407e-01    -0.480    -0.619    -0.139     -1.97
   NaSO4-          6.773e-02   4.908e-02    -1.169    -1.309    -0.140     19.07
   Na2SO4          5.957e-07   6.546e-07    -6.225    -6.184     0.041     61.65
O(0)          3.872e-16
   O2              1.936e-16   2.154e-16   -15.713   -15.667     0.046     28.29
S(-2)         0.000e+00
   HS-             0.000e+00   0.000e+00  -127.555  -127.745    -0.189     19.59
   H2S             0.000e+00   0.000e+00  -128.101  -128.055     0.046     29.51
   S-2             0.000e+00   0.000e+00  -133.096  -133.735    -0.638     (0)  
   (H2S)2          0.000e+00   0.000e+00  -257.688  -257.642     0.046     30.79
S(6)          1.995e-01
   SO4-2           1.318e-01   2.903e-02    -0.880    -1.537    -0.657     12.09
   NaSO4-          6.773e-02   4.908e-02    -1.169    -1.309    -0.140     19.07
   Na2SO4          5.957e-07   6.546e-07    -6.225    -6.184     0.041     61.65
   HSO4-           6.984e-08   5.160e-08    -7.156    -7.287    -0.131     38.71

------------------------------Saturation indices-------------------------------

  Phase               SI** log IAP   log K(278 K,   1 atm)

  H2(g)           -38.88    -41.93   -3.05  H2
  H2O(g)           -2.06     -0.00    2.06  H2O
  H2S(g)         -127.32   -135.31   -7.99  H2S
  Mirabilite       -0.72     -2.81   -2.09  Na2SO4:10H2O
  O2(g)           -12.95    -15.67   -2.71  O2
  Sulfur          -94.57    -89.19    5.38  S
  Thenardite       -3.68     -2.77    0.90  Na2SO4

**For a gas, SI = log10(fugacity). Fugacity = pressure * phi / 1 atm.
  For ideal gases, phi = 1.

Reaction step 7.

Using solution 1.	
Using temperature 1.	
Using pressure 1.	
Using reaction 1.	

Reaction 1.	

	  3.018e-01 moles of the following reaction have been added:

	                 Relative
	Reactant            moles

	Na2SO4               1.00000

	                 Relative
	Element             moles
	Na                   2.00000
	O                    4.00000
	S                    1.00000

-----------------------------Solution composition------------------------------

	Elements           Molality       Moles

	Na                6.036e-01   6.036e-01
	S                 3.018e-01   3.018e-01

----------------------------Description of solution----------------------------

                                       pH  =   7.582      Charge balance
                                       pe  =  -1.862      Adjusted to redox equilibrium
      Specific Conductance (µS/cm,   5°C)  = 24984
                          Density (g/cm³)  =   1.03882
                               Volume (L)  =   1.00390
                        Viscosity (mPa s)  =   1.73769
                        Activity of water  =   0.987
                 Ionic strength (mol/kgw)  =   6.684e-01
                       Mass of water (kg)  =   1.000e+00
                 Total alkalinity (eq/kg)  =   1.142e-16
                         Temperature (°C)  =   5.00
                  Electrical balance (eq)  =  -7.044e-13
 Percent error, 100*(Cat-|An|)/(Cat+|An|)  =  -0.00
                               Iterations  =  12
                                  Total H  = 1.110124e+02
                                  Total O  = 5.671350e+01

----------------------------Distribution of species----------------------------

                                               Log       Log       Log    mole V
   Species          Molality    Activity  Molality  Activity     Gamma   cm³/mol

   OH-             1.137e-07   7.024e-08    -6.944    -7.153    -0.209     -4.17
   H+              3.444e-08   2.618e-08    -7.463    -7.582    -0.119      0.00
   H2O             5.551e+01   9.866e-01     1.744    -0.006     0.000     18.02
H(0)          5.424e-15
   H2              2.712e-15   3.188e-15   -14.567   -14.497     0.070     13.02
Na            6.036e-01
   Na+             4.851e-01   3.523e-01    -0.314    -0.453    -0.139     -1.77
   NaSO4-          1.185e-01   8.634e-02    -0.926    -1.064    -0.138     19.91
   Na2SO4          1.471e-06   1.685e-06    -5.832    -5.773     0.059     61.65
O(0)          0.000e+00
   O2              0.000e+00   0.000e+00   -70.598   -70.531     0.067     28.29
S(-2)         2.254e-18
   HS-             1.804e-18   1.114e-18   -17.744   -17.953    -0.209     19.70
   H2S             4.501e-19   5.250e-19   -18.347   -18.280     0.067     29.51
   S-2             5.846e-24   1.184e-24   -23.233   -23.927    -0.694     (0)  
   (H2S)2          6.942e-39   8.097e-39   -38.159   -38.092     0.067     30.79
S(6)          3.018e-01
   SO4-2           1.833e-01   3.489e-02    -0.737    -1.457    -0.720     12.88
   NaSO4-          1.185e-01   8.634e-02    -0.926    -1.064    -0.138     19.91
   Na2SO4          1.471e-06   1.685e-06    -5.832    -5.773     0.059     61.65
   HSO4-           7.928e-08   5.970e-08    -7.101    -7.224    -0.123     38.82

------------------------------Saturation indices-------------------------------

  Phase               SI** log IAP   log K(278 K,   1 atm)

  H2(g)           -11.45    -14.50   -3.05  H2
  H2O(g)           -2.06     -0.01    2.06  H2O
  H2S(g)          -17.54    -25.54   -7.99  H2S
  Mirabilite       -0.33     -2.42   -2.09  Na2SO4:10H2O
  O2(g)           -67.82    -70.53   -2.71  O2
  Sulfur          -12.22     -6.84    5.38  S
  Thenardite       -3.27     -2.36    0.90  Na2SO4

**For a gas, SI = log10(fugacity). Fugacity = pressure * phi / 1 atm.
  For ideal gases, phi = 1.

Reaction step 8.

Using solution 1.	
Using temperature 1.	
Using pressure 1.	
Using reaction 1.	

Reaction 1.	

	  5.021e-01 moles of the following reaction have been added:

	                 Relative
	Reactant            moles

	Na2SO4               1.00000

	                 Relative
	Element             moles
	Na                   2.00000
	O                    4.00000
	S                    1.00000

-----------------------------Solution composition------------------------------

	Elements           Molality       Moles

	Na                1.004e+00   1.004e+00
	S                 5.021e-01   5.021e-01

----------------------------Description of solution----------------------------

                                       pH  =   7.595      Charge balance
                                       pe  =  -1.830      Adjusted to redox equilibrium
      Specific Conductance (µS/cm,   5°C)  = 36147
                          Density (g/cm³)  =   1.06317
                               Volume (L)  =   1.00767
                        Viscosity (mPa s)  =   1.90855
                        Activity of water  =   0.978
                 Ionic strength (mol/kgw)  =   1.046e+00
                       Mass of water (kg)  =   1.000e+00
                 Total alkalinity (eq/kg)  =   1.185e-16
                         Temperature (°C)  =   5.00
                  Electrical balance (eq)  =  -7.082e-13
 Percent error, 100*(Cat-|An|)/(Cat+|An|)  =  -0.00
                               Iterations  =  12
                                  Total H  = 1.110124e+02
                                  Total O  = 5.751454e+01

----------------------------Distribution of species----------------------------

                                               Log       Log       Log    mole V
   Species          Molality    Activity  Molality  Activity     Gamma   cm³/mol

   OH-             1.229e-07   7.177e-08    -6.911    -7.144    -0.234     -3.60
   H+              3.400e-08   2.541e-08    -7.468    -7.595    -0.127      0.00
   H2O             5.551e+01   9.783e-01     1.744    -0.010     0.000     18.02
H(0)          4.012e-15
   H2              2.006e-15   2.584e-15   -14.698   -14.588     0.110     13.02
Na            1.004e+00
   Na+             7.741e-01   5.757e-01    -0.111    -0.240    -0.129     -1.46
   NaSO4-          2.301e-01   1.740e-01    -0.638    -0.760    -0.121     21.20
   Na2SO4          4.484e-06   5.549e-06    -5.348    -5.256     0.093     61.65
O(0)          0.000e+00
   O2              0.000e+00   0.000e+00   -70.460   -70.356     0.105     28.29
S(-2)         1.232e-18
   HS-             1.019e-18   5.950e-19   -17.992   -18.225    -0.234     19.86
   H2S             2.139e-19   2.721e-19   -18.670   -18.565     0.105     29.51
   S-2             3.740e-24   6.513e-25   -23.427   -24.186    -0.759     (0)  
   (H2S)2          1.710e-39   2.175e-39   -38.767   -38.663     0.105     30.79
S(6)          5.021e-01
   SO4-2           2.720e-01   4.303e-02    -0.565    -1.366    -0.801     14.28
   NaSO4-          2.301e-01   1.740e-01    -0.638    -0.760    -0.121     21.20
   Na2SO4          4.484e-06   5.549e-06    -5.348    -5.256     0.093     61.65
   HSO4-           8.887e-08   7.144e-08    -7.051    -7.146    -0.095     38.98

------------------------------Saturation indices-------------------------------

  Phase               SI** log IAP   log K(278 K,   1 atm)

  H2(g)           -11.54    -14.59   -3.05  H2
  H2O(g)           -2.07     -0.01    2.06  H2O
  H2S(g)          -17.83    -25.82   -7.99  H2S
  Mirabilite        0.15     -1.94   -2.09  Na2SO4:10H2O
  O2(g)           -67.64    -70.36   -2.71  O2
  Sulfur          -12.42     -7.03    5.38  S
  Thenardite       -2.75     -1.85    0.90  Na2SO4

**For a gas, SI = log10(fugacity). Fugacity = pressure * phi / 1 atm.
  For ideal gases, phi = 1.

Reaction step 9.

Using solution 1.	
Using temperature 1.	
Using pressure 1.	
Using reaction 1.	

Reaction 1.	

	  5.676e-01 moles of the following reaction have been added:

	                 Relative
	Reactant            moles

	Na2SO4               1.00000

	                 Relative
	Element             moles
	Na                   2.00000
	O                    4.00000
	S                    1.00000

-----------------------------Solution composition------------------------------

	Elements           Molality       Moles

	Na                1.135e+00   1.135e+00
	S                 5.676e-01   5.676e-01

----------------------------Description of solution----------------------------

                                       pH  =   7.596      Charge balance
                                       pe  =  12.043      Adjusted to redox equilibrium
      Specific Conductance (µS/cm,   5°C)  = 39273
                          Density (g/cm³)  =   1.07095
                               Volume (L)  =   1.00903
                        Viscosity (mPa s)  =   1.96935
                        Activity of water  =   0.976
                 Ionic strength (mol/kgw)  =   1.165e+00
                       Mass of water (kg)  =   1.000e+00
                 Total alkalinity (eq/kg)  =   2.665e-16
                         Temperature (°C)  =   5.00
                  Electrical balance (eq)  =  -1.297e-12
 Percent error, 100*(Cat-|An|)/(Cat+|An|)  =  -0.00
                               Iterations  =  14
                                  Total H  = 1.110124e+02
                                  Total O  = 5.777662e+01

----------------------------Distribution of species----------------------------

                                               Log       Log       Log    mole V
   Species          Molality    Activity  Molality  Activity     Gamma   cm³/mol

   OH-             1.246e-07   7.181e-08    -6.904    -7.144    -0.239     -3.42
   H+              3.402e-08   2.532e-08    -7.468    -7.596    -0.128      0.00
   H2O             5.551e+01   9.756e-01     1.744    -0.011     0.000     18.02
H(0)          0.000e+00
   H2              0.000e+00   0.000e+00   -42.459   -42.337     0.122     13.02
Na            1.135e+00
   Na+             8.664e-01   6.516e-01    -0.062    -0.186    -0.124     -1.38
   NaSO4-          2.688e-01   2.066e-01    -0.571    -0.685    -0.114     21.56
   Na2SO4          5.881e-06   7.458e-06    -5.231    -5.127     0.103     61.65
O(0)          2.108e-15
   O2              1.054e-15   1.379e-15   -14.977   -14.861     0.117     28.29
S(-2)         0.000e+00
   HS-             0.000e+00   0.000e+00  -128.957  -129.197    -0.239     19.91
   H2S             0.000e+00   0.000e+00  -129.654  -129.538     0.117     29.51
   S-2             0.000e+00   0.000e+00  -134.382  -135.156    -0.774     (0)  
   (H2S)2          0.000e+00   0.000e+00  -260.724  -260.608     0.117     30.79
S(6)          5.676e-01
   SO4-2           2.988e-01   4.513e-02    -0.525    -1.346    -0.821     14.72
   NaSO4-          2.688e-01   2.066e-01    -0.571    -0.685    -0.114     21.56
   Na2SO4          5.881e-06   7.458e-06    -5.231    -5.127     0.103     61.65
   HSO4-           9.058e-08   7.468e-08    -7.043    -7.127    -0.084     39.02

------------------------------Saturation indices-------------------------------

  Phase               SI** log IAP   log K(278 K,   1 atm)

  H2(g)           -39.29    -42.34   -3.05  H2
  H2O(g)           -2.07     -0.01    2.06  H2O
  H2S(g)         -128.80   -136.79   -7.99  H2S
  Mirabilite        0.26     -1.82   -2.09  Na2SO4:10H2O
  O2(g)           -12.15    -14.86   -2.71  O2
  Sulfur          -95.64    -90.26    5.38  S
  Thenardite       -2.62     -1.72    0.90  Na2SO4

**For a gas, SI = log10(fugacity). Fugacity = pressure * phi / 1 atm.
  For ideal gases, phi = 1.

Reaction step 10.

Using solution 1.	
Using temperature 1.	
Using pressure 1.	
Using reaction 1.	

Reaction 1.	

	  6.500e-01 moles of the following reaction have been added:

	                 Relative
	Reactant            moles

	Na2SO4               1.00000

	                 Relative
	Element             moles
	Na                   2.00000
	O                    4.00000
	S                    1.00000

-----------------------------Solution composition------------------------------

	Elements           Molality       Moles

	Na                1.300e+00   1.300e+00
	S                 6.500e-01   6.500e-01

----------------------------Description of solution----------------------------

                                       pH  =   7.597      Charge balance
                                       pe  =  12.005      Adjusted to redox equilibrium
      Specific Conductance (µS/cm,   5°C)  = 42899
                          Density (g/cm³)  =   1.08062
                               Volume (L)  =   1.01084
                        Viscosity (mPa s)  =   2.04932
                        Activity of water  =   0.972
                 Ionic strength (mol/kgw)  =   1.313e+00
                       Mass of water (kg)  =   1.000e+00
                 Total alkalinity (eq/kg)  =   1.302e-16
                         Temperature (°C)  =   5.00
                  Electrical balance (eq)  =  -4.312e-13
 Percent error, 100*(Cat-|An|)/(Cat+|An|)  =  -0.00
                               Iterations  =  14
                                  Total H  = 1.110124e+02
                                  Total O  = 5.810622e+01

----------------------------Distribution of species----------------------------

                                               Log       Log       Log    mole V
   Species          Molality    Activity  Molality  Activity     Gamma   cm³/mol

   OH-             1.262e-07   7.168e-08    -6.899    -7.145    -0.246     -3.21
   H+              3.411e-08   2.528e-08    -7.467    -7.597    -0.130      0.00
   H2O             5.551e+01   9.723e-01     1.744    -0.012     0.000     18.02
H(0)          0.000e+00
   H2              0.000e+00   0.000e+00   -42.399   -42.261     0.138     13.02
Na            1.300e+00
   Na+             9.814e-01   7.496e-01    -0.008    -0.125    -0.117     -1.28
   NaSO4-          3.186e-01   2.502e-01    -0.497    -0.602    -0.105     21.99
   Na2SO4          7.954e-06   1.039e-05    -5.099    -4.983     0.116     61.65
O(0)          1.431e-15
   O2              7.153e-16   9.678e-16   -15.145   -15.014     0.131     28.29
S(-2)         0.000e+00
   HS-             0.000e+00   0.000e+00  -128.622  -128.868    -0.246     19.96
   H2S             0.000e+00   0.000e+00  -129.341  -129.210     0.131     29.51
   S-2             0.000e+00   0.000e+00  -134.035  -134.826    -0.791     (0)  
   (H2S)2          0.000e+00   0.000e+00  -260.082  -259.951     0.131     30.79
S(6)          6.500e-01
   SO4-2           3.314e-01   4.752e-02    -0.480    -1.323    -0.843     15.25
   NaSO4-          3.186e-01   2.502e-01    -0.497    -0.602    -0.105     21.99
   Na2SO4          7.954e-06   1.039e-05    -5.099    -4.983     0.116     61.65
   HSO4-           9.210e-08   7.852e-08    -7.036    -7.105    -0.069     39.07

------------------------------Saturation indices-------------------------------

  Phase               SI** log IAP   log K(278 K,   1 atm)

  H2(g)           -39.22    -42.26   -3.05  H2
  H2O(g)           -2.07     -0.01    2.06  H2O
  H2S(g)         -128.47   -136.46   -7.99  H2S
  Mirabilite        0.39     -1.70   -2.09  Na2SO4:10H2O
  O2(g)           -12.30    -15.01   -2.71  O2
  Sulfur          -95.39    -90.01    5.38  S
  Thenardite       -2.48     -1.57    0.90  Na2SO4

**For a gas, SI = log10(fugacity). Fugacity = pressure * phi / 1 atm.
  For ideal gases, phi = 1.

Reaction step 11.

Using solution 1.	
Using temperature 1.	
Using pressure 1.	
Using reaction 1.	

Reaction 1.	

	  7.019e-01 moles of the following reaction have been added:

	                 Relative
	Reactant            moles

	Na2SO4               1.00000

	                 Relative
	Element             moles
	Na                   2.00000
	O                    4.00000
	S                    1.00000

-----------------------------Solution composition------------------------------

	Elements           Molality       Moles

	Na                1.404e+00   1.404e+00
	S                 7.019e-01   7.019e-01

----------------------------Description of solution----------------------------

                                       pH  =   7.597      Charge balance
                                       pe  =  12.065      Adjusted to redox equilibrium
      Specific Conductance (µS/cm,   5°C)  = 45021
                          Density (g/cm³)  =   1.08664
                               Volume (L)  =   1.01201
                        Viscosity (mPa s)  =   2.10173
                        Activity of water  =   0.970
                 Ionic strength (mol/kgw)  =   1.405e+00
                       Mass of water (kg)  =   1.000e+00
                 Total alkalinity (eq/kg)  =   3.560e-17
                         Temperature (°C)  =   5.00
                  Electrical balance (eq)  =  -3.312e-13
 Percent error, 100*(Cat-|An|)/(Cat+|An|)  =  -0.00
                               Iterations  =  14
                                  Total H  = 1.110124e+02
                                  Total O  = 5.831378e+01

----------------------------Distribution of species----------------------------

                                               Log       Log       Log    mole V
   Species          Molality    Activity  Molality  Activity     Gamma   cm³/mol

   OH-             1.269e-07   7.151e-08    -6.896    -7.146    -0.249     -3.08
   H+              3.419e-08   2.529e-08    -7.466    -7.597    -0.131      0.00
   H2O             5.551e+01   9.702e-01     1.744    -0.013     0.000     18.02
H(0)          0.000e+00
   H2              0.000e+00   0.000e+00   -42.530   -42.382     0.147     13.02
Na            1.404e+00
   Na+             1.053e+00   8.130e-01     0.023    -0.090    -0.112     -1.23
   NaSO4-          3.505e-01   2.793e-01    -0.455    -0.554    -0.099     22.24
   Na2SO4          9.449e-06   1.258e-05    -5.025    -4.900     0.124     61.65
O(0)          2.433e-15
   O2              1.216e-15   1.681e-15   -14.915   -14.774     0.140     28.29
S(-2)         0.000e+00
   HS-             0.000e+00   0.000e+00  -129.085  -129.335    -0.249     19.99
   H2S             0.000e+00   0.000e+00  -129.817  -129.676     0.140     29.51
   S-2             0.000e+00   0.000e+00  -134.493  -135.293    -0.800     (0)  
   (H2S)2          0.000e+00   0.000e+00  -261.025  -260.885     0.140     30.79
S(6)          7.019e-01
   SO4-2           3.513e-01   4.891e-02    -0.454    -1.311    -0.856     15.58
   NaSO4-          3.505e-01   2.793e-01    -0.455    -0.554    -0.099     22.24
   Na2SO4          9.449e-06   1.258e-05    -5.025    -4.900     0.124     61.65
   HSO4-           9.276e-08   8.082e-08    -7.033    -7.092    -0.060     39.10

------------------------------Saturation indices-------------------------------

  Phase               SI** log IAP   log K(278 K,   1 atm)

  H2(g)           -39.34    -42.38   -3.05  H2
  H2O(g)           -2.07     -0.01    2.06  H2O
  H2S(g)         -128.94   -136.93   -7.99  H2S
  Mirabilite        0.47     -1.62   -2.09  Na2SO4:10H2O
  O2(g)           -12.06    -14.77   -2.71  O2
  Sulfur          -95.73    -90.35    5.38  S
  Thenardite       -2.39     -1.49    0.90  Na2SO4

**For a gas, SI = log10(fugacity). Fugacity = pressure * phi / 1 atm.
  For ideal gases, phi = 1.

Reaction step 12.

Using solution 1.	
Using temperature 1.	
Using pressure 1.	
Using reaction 1.	

Reaction 1.	

	  1.333e+00 moles of the following reaction have been added:

	                 Relative
	Reactant            moles

	Na2SO4               1.00000

	                 Relative
	Element             moles
	Na                   2.00000
	O                    4.00000
	S                    1.00000

-----------------------------Solution composition------------------------------

	Elements           Molality       Moles

	Na                2.667e+00   2.667e+00
	S                 1.333e+00   1.333e+00

----------------------------Description of solution----------------------------

                                       pH  =   7.579      Charge balance
                                       pe  =  -1.931      Adjusted to redox equilibrium
      Specific Conductance (µS/cm,   5°C)  = 63228
                          Density (g/cm³)  =   1.15619
                               Volume (L)  =   1.02872
                        Viscosity (mPa s)  =   2.87994
                        Activity of water  =   0.945
                 Ionic strength (mol/kgw)  =   2.487e+00
                       Mass of water (kg)  =   1.000e+00
                 Total alkalinity (eq/kg)  =  -1.211e-16
                         Temperature (°C)  =   5.00
                  Electrical balance (eq)  =   4.083e-11
 Percent error, 100*(Cat-|An|)/(Cat+|An|)  =   0.00
                               Iterations  =  11
                                  Total H  = 1.110124e+02
                                  Total O  = 6.083982e+01

----------------------------Distribution of species----------------------------

                                               Log       Log       Log    mole V
   Species          Molality    Activity  Molality  Activity     Gamma   cm³/mol

   OH-             1.269e-07   6.679e-08    -6.897    -7.175    -0.279     -1.59
   H+              3.629e-08   2.637e-08    -7.440    -7.579    -0.139      0.00
   H2O             5.551e+01   9.449e-01     1.744    -0.025     0.000     18.02
H(0)          4.863e-15
   H2              2.432e-15   4.436e-15   -14.614   -14.353     0.261     13.02
Na            2.667e+00
   Na+             1.910e+00   1.710e+00     0.281     0.233    -0.048     -0.64
   NaSO4-          7.566e-01   7.357e-01    -0.121    -0.133    -0.012     24.80
   Na2SO4          4.200e-05   6.971e-05    -4.377    -4.157     0.220     61.65
O(0)          0.000e+00
   O2              0.000e+00   0.000e+00   -71.104   -70.856     0.249     28.29
S(-2)         1.904e-17
   HS-             1.669e-17   8.781e-18   -16.778   -17.056    -0.279     20.30
   H2S             2.351e-18   4.168e-18   -17.629   -17.380     0.249     29.51
   S-2             6.936e-23   9.263e-24   -22.159   -23.033    -0.874     (0)  
   (H2S)2          2.878e-37   5.103e-37   -36.541   -36.292     0.249     30.79
S(6)          1.333e+00
   NaSO4-          7.566e-01   7.357e-01    -0.121    -0.133    -0.012     24.80
   SO4-2           5.767e-01   6.125e-02    -0.239    -1.213    -0.974     19.34
   Na2SO4          4.200e-05   6.971e-05    -4.377    -4.157     0.220     61.65
   HSO4-           9.061e-08   1.055e-07    -7.043    -6.977     0.066     39.41

------------------------------Saturation indices-------------------------------

  Phase               SI** log IAP   log K(278 K,   1 atm)

  H2(g)           -11.31    -14.35   -3.05  H2
  H2O(g)           -2.08     -0.02    2.06  H2O
  H2S(g)          -16.64    -24.64   -7.99  H2S
  Mirabilite        1.10     -0.99   -2.09  Na2SO4:10H2O
  O2(g)           -68.14    -70.86   -2.71  O2
  Sulfur          -11.47     -6.08    5.38  S
  Thenardite       -1.65     -0.75    0.90  Na2SO4

**For a gas, SI = log10(fugacity). Fugacity = pressure * phi / 1 atm.
  For ideal gases, phi = 1.

------------------
End of simulation.
------------------

------------------------------------
Reading input data for simulation 3.
------------------------------------

	USE solution 1
	REACTION_TEMPERATURE
	 15.000000
	REACTION_PRESSURE
	 1.000000
	REACTION
	 Na2SO4 1
	0 0.031780 0.039707 0.049773 0.050000 0.050060 0.050500 0.055530 0.060070 0.062327 0.079884 0.080090 0.099681 0.100000 0.100190 0.100334 0.122326 0.139845 0.140500 0.160206 0.163730 0.179977 0.199510 0.202159 0.301820 0.333070 0.403560 0.500000 0.502080 0.567600 0.701890 1.333400
	USER_GRAPH
	 -headings 15.oC
	10 data 0, 10.660787, 10.759914, 11.186177, 11.271016, 13.141759, 11.520620, 11.597221, 12.127897, 11.514562, 12.003572, 14.072536, 12.292560, 12.687364, 12.626973, 12.343838, 13.109338, 13.318227, 10.838139, 13.758569, 13.883328, 14.101019, 14.347255, 14.420171, 15.765335, 16.149783, 16.980084, 18.265683, 17.958540, 18.567345, 19.711957, 24.244000,
	20 dim d(32)
	30 read d(1), d(2), d(3), d(4), d(5), d(6), d(7), d(8), d(9), d(10), d(11), d(12), d(13), d(14), d(15), d(16), d(17), d(18), d(19), d(20), d(21), d(22), d(23), d(24), d(25), d(26), d(27), d(28), d(29), d(30), d(31), d(32),
	40 if step_no = 1 then put(rho, 10)
	50 if step_no > 1 then Vmol = (1e3 + tot("S(6)") * 142.0436) / (tot("S(6)") * rho) - 1e3 / (tot("S(6)") * get(10))
	60 if step_no = 1 then dif = 0 else dif = Vmol - d(step_no)
	62 if step_no = 1 then goto 90
	70 plot_xy tot("S(6)"), d(step_no), line_w = 0, color = Red #aph_x tot("S(6)") # dif, str$(tc), str$(pressure), str$(step_no + get(1))
	80 plot_xy tot("S(6)"), Vmol, symbol = None, color = Red #step_no = 264 then put(step_no + get(1), 1)
	90 end
	END
-----------------------------------------
Beginning of batch-reaction calculations.
-----------------------------------------

Reaction step 1.

Using solution 1.	
Using temperature 1.	
Using pressure 1.	
Using reaction 1.	

Reaction 1.	

	  0.000e+00 moles of the following reaction have been added:

	                 Relative
	Reactant            moles

	Na2SO4               1.00000

	                 Relative
	Element             moles
	Na                   2.00000
	O                    4.00000
	S                    1.00000

-----------------------------Solution composition------------------------------

	Elements           Molality       Moles

	Pure water     

----------------------------Description of solution----------------------------

                                       pH  =   7.172      Charge balance
                                       pe  =  -0.315      Adjusted to redox equilibrium
      Specific Conductance (µS/cm,  15°C)  = 0
                          Density (g/cm³)  =   0.99910
                               Volume (L)  =   1.00090
                        Viscosity (mPa s)  =   1.13757
                        Activity of water  =   1.000
                 Ionic strength (mol/kgw)  =   6.737e-08
                       Mass of water (kg)  =   1.000e+00
                 Total alkalinity (eq/kg)  =   9.842e-17
                         Temperature (°C)  =  15.00
                  Electrical balance (eq)  =  -9.842e-17
 Percent error, 100*(Cat-|An|)/(Cat+|An|)  =  -0.00
                               Iterations  =   7
                                  Total H  = 1.110124e+02
                                  Total O  = 5.550622e+01

----------------------------Distribution of species----------------------------

                                               Log       Log       Log    mole V
   Species          Molality    Activity  Molality  Activity     Gamma   cm³/mol

   OH-             6.737e-08   6.735e-08    -7.172    -7.172    -0.000     -4.65
   H+              6.737e-08   6.735e-08    -7.172    -7.172    -0.000      0.00
   H2O             5.551e+01   1.000e+00     1.744    -0.000     0.000     18.03
H(0)          3.042e-17
   H2              1.521e-17   1.521e-17   -16.818   -16.818     0.000     14.15
O(0)          0.000e+00
   O2              0.000e+00   0.000e+00   -62.169   -62.169     0.000     29.51

------------------------------Saturation indices-------------------------------

  Phase               SI** log IAP   log K(288 K,   1 atm)

  H2(g)           -13.74    -16.82   -3.08  H2
  H2O(g)           -1.77     -0.00    1.77  H2O
  O2(g)           -59.36    -62.17   -2.81  O2

**For a gas, SI = log10(fugacity). Fugacity = pressure * phi / 1 atm.
  For ideal gases, phi = 1.

Reaction step 2.

Using solution 1.	
Using temperature 1.	
Using pressure 1.	
Using reaction 1.	

Reaction 1.	

	  3.178e-02 moles of the following reaction have been added:

	                 Relative
	Reactant            moles

	Na2SO4               1.00000

	                 Relative
	Element             moles
	Na                   2.00000
	O                    4.00000
	S                    1.00000

-----------------------------Solution composition------------------------------

	Elements           Molality       Moles

	Na                6.356e-02   6.356e-02
	S                 3.178e-02   3.178e-02

----------------------------Description of solution----------------------------

                                       pH  =   7.294      Charge balance
                                       pe  =  -1.516      Adjusted to redox equilibrium
      Specific Conductance (µS/cm,  15°C)  = 4962
                          Density (g/cm³)  =   1.00326
                               Volume (L)  =   1.00125
                        Viscosity (mPa s)  =   1.15545
                        Activity of water  =   0.998
                 Ionic strength (mol/kgw)  =   8.546e-02
                       Mass of water (kg)  =   1.000e+00
                 Total alkalinity (eq/kg)  =   2.723e-17
                         Temperature (°C)  =  15.00
                  Electrical balance (eq)  =   3.129e-15
 Percent error, 100*(Cat-|An|)/(Cat+|An|)  =   0.00
                               Iterations  =  14
                                  Total H  = 1.110124e+02
                                  Total O  = 5.563334e+01

----------------------------Distribution of species----------------------------

                                               Log       Log       Log    mole V
   Species          Molality    Activity  Molality  Activity     Gamma   cm³/mol

   OH-             1.148e-07   8.917e-08    -6.940    -7.050    -0.110     -4.31
   H+              6.091e-08   5.080e-08    -7.215    -7.294    -0.079      0.00
   H2O             5.551e+01   9.985e-01     1.744    -0.001     0.000     18.03
H(0)          4.271e-15
   H2              2.136e-15   2.180e-15   -14.670   -14.661     0.009     14.15
Na            6.356e-02
   Na+             5.862e-02   4.672e-02    -1.232    -1.330    -0.099     -1.72
   NaSO4-          4.942e-03   3.919e-03    -2.306    -2.407    -0.101     17.67
   Na2SO4          3.097e-08   3.151e-08    -7.509    -7.502     0.008     53.68
O(0)          0.000e+00
   O2              0.000e+00   0.000e+00   -66.492   -66.483     0.009     29.51
S(-2)         9.310e-21
   HS-             6.333e-21   4.917e-21   -20.198   -20.308    -0.110     20.25
   H2S             2.977e-21   3.036e-21   -20.526   -20.518     0.009     33.43
   S-2             1.436e-26   5.756e-27   -25.843   -26.240    -0.397     (0)  
   (H2S)2          0.000e+00   0.000e+00   -42.440   -42.431     0.009     30.48
S(6)          3.178e-02
   SO4-2           2.684e-02   1.068e-02    -1.571    -1.972    -0.400     13.33
   NaSO4-          4.942e-03   3.919e-03    -2.306    -2.407    -0.101     17.67
   HSO4-           5.394e-08   4.278e-08    -7.268    -7.369    -0.101     39.67
   Na2SO4          3.097e-08   3.151e-08    -7.509    -7.502     0.008     53.68

------------------------------Saturation indices-------------------------------

  Phase               SI** log IAP   log K(288 K,   1 atm)

  H2(g)           -11.59    -14.66   -3.08  H2
  H2O(g)           -1.77     -0.00    1.77  H2O
  H2S(g)          -19.64    -27.60   -7.96  H2S
  Mirabilite       -3.22     -4.64   -1.42  Na2SO4:10H2O
  O2(g)           -63.67    -66.48   -2.81  O2
  Sulfur          -14.09     -8.96    5.12  S
  Thenardite       -5.41     -4.63    0.78  Na2SO4

**For a gas, SI = log10(fugacity). Fugacity = pressure * phi / 1 atm.
  For ideal gases, phi = 1.

Reaction step 3.

Using solution 1.	
Using temperature 1.	
Using pressure 1.	
Using reaction 1.	

Reaction 1.	

	  3.971e-02 moles of the following reaction have been added:

	                 Relative
	Reactant            moles

	Na2SO4               1.00000

	                 Relative
	Element             moles
	Na                   2.00000
	O                    4.00000
	S                    1.00000

-----------------------------Solution composition------------------------------

	Elements           Molality       Moles

	Na                7.941e-02   7.941e-02
	S                 3.971e-02   3.971e-02

----------------------------Description of solution----------------------------

                                       pH  =   7.306      Charge balance
                                       pe  =  -1.062      Adjusted to redox equilibrium
      Specific Conductance (µS/cm,  15°C)  = 6050
                          Density (g/cm³)  =   1.00429
                               Volume (L)  =   1.00134
                        Viscosity (mPa s)  =   1.15943
                        Activity of water  =   0.998
                 Ionic strength (mol/kgw)  =   1.052e-01
                       Mass of water (kg)  =   1.000e+00
                 Total alkalinity (eq/kg)  =   3.943e-17
                         Temperature (°C)  =  15.00
                  Electrical balance (eq)  =   6.675e-15
 Percent error, 100*(Cat-|An|)/(Cat+|An|)  =   0.00
                               Iterations  =  12
                                  Total H  = 1.110124e+02
                                  Total O  = 5.566504e+01

----------------------------Distribution of species----------------------------

                                               Log       Log       Log    mole V
   Species          Molality    Activity  Molality  Activity     Gamma   cm³/mol

   OH-             1.205e-07   9.169e-08    -6.919    -7.038    -0.119     -4.26
   H+              5.982e-08   4.938e-08    -7.223    -7.306    -0.083      0.00
   H2O             5.551e+01   9.981e-01     1.744    -0.001     0.000     18.03
H(0)          4.963e-16
   H2              2.481e-16   2.545e-16   -15.605   -15.594     0.011     14.15
Na            7.941e-02
   Na+             7.244e-02   5.689e-02    -1.140    -1.245    -0.105     -1.67
   NaSO4-          6.969e-03   5.442e-03    -2.157    -2.264    -0.107     17.86
   Na2SO4          5.216e-08   5.329e-08    -7.283    -7.273     0.009     53.68
O(0)          0.000e+00
   O2              0.000e+00   0.000e+00   -64.629   -64.618     0.011     29.51
S(-2)         1.927e-24
   HS-             1.333e-24   1.014e-24   -23.875   -23.994    -0.119     20.27
   H2S             5.941e-25   6.087e-25   -24.226   -24.216     0.011     33.43
   S-2             3.251e-30   1.221e-30   -29.488   -29.913    -0.425     (0)  
   (H2S)2          0.000e+00   0.000e+00   -49.838   -49.827     0.011     30.48
S(6)          3.971e-02
   SO4-2           3.274e-02   1.218e-02    -1.485    -1.915    -0.430     13.42
   NaSO4-          6.969e-03   5.442e-03    -2.157    -2.264    -0.107     17.86
   HSO4-           6.069e-08   4.743e-08    -7.217    -7.324    -0.107     39.70
   Na2SO4          5.216e-08   5.329e-08    -7.283    -7.273     0.009     53.68

------------------------------Saturation indices-------------------------------

  Phase               SI** log IAP   log K(288 K,   1 atm)

  H2(g)           -12.52    -15.59   -3.08  H2
  H2O(g)           -1.77     -0.00    1.77  H2O
  H2S(g)          -23.34    -31.30   -7.96  H2S
  Mirabilite       -3.00     -4.41   -1.42  Na2SO4:10H2O
  O2(g)           -61.81    -64.62   -2.81  O2
  Sulfur          -16.85    -11.73    5.12  S
  Thenardite       -5.19     -4.40    0.78  Na2SO4

**For a gas, SI = log10(fugacity). Fugacity = pressure * phi / 1 atm.
  For ideal gases, phi = 1.

Reaction step 4.

Using solution 1.	
Using temperature 1.	
Using pressure 1.	
Using reaction 1.	

Reaction 1.	

	  4.977e-02 moles of the following reaction have been added:

	                 Relative
	Reactant            moles

	Na2SO4               1.00000

	                 Relative
	Element             moles
	Na                   2.00000
	O                    4.00000
	S                    1.00000

-----------------------------Solution composition------------------------------

	Elements           Molality       Moles

	Na                9.955e-02   9.955e-02
	S                 4.977e-02   4.977e-02

----------------------------Description of solution----------------------------

                                       pH  =   7.319      Charge balance
                                       pe  =  11.114      Adjusted to redox equilibrium
      Specific Conductance (µS/cm,  15°C)  = 7382
                          Density (g/cm³)  =   1.00559
                               Volume (L)  =   1.00147
                        Viscosity (mPa s)  =   1.16446
                        Activity of water  =   0.998
                 Ionic strength (mol/kgw)  =   1.297e-01
                       Mass of water (kg)  =   1.000e+00
                 Total alkalinity (eq/kg)  =   4.934e-17
                         Temperature (°C)  =  15.00
                  Electrical balance (eq)  =  -3.114e-11
 Percent error, 100*(Cat-|An|)/(Cat+|An|)  =  -0.00
                               Iterations  =  14
                                  Total H  = 1.110124e+02
                                  Total O  = 5.570531e+01

----------------------------Distribution of species----------------------------

                                               Log       Log       Log    mole V
   Species          Molality    Activity  Molality  Activity     Gamma   cm³/mol

   OH-             1.267e-07   9.437e-08    -6.897    -7.025    -0.128     -4.20
   H+              5.869e-08   4.795e-08    -7.231    -7.319    -0.088      0.00
   H2O             5.551e+01   9.976e-01     1.744    -0.001     0.000     18.03
H(0)          2.071e-40
   H2              1.035e-40   1.068e-40   -39.985   -39.971     0.014     14.15
Na            9.955e-02
   Na+             8.972e-02   6.942e-02    -1.047    -1.159    -0.111     -1.62
   NaSO4-          9.823e-03   7.554e-03    -2.008    -2.122    -0.114     18.08
   Na2SO4          8.790e-08   9.025e-08    -7.056    -7.045     0.011     53.68
O(0)          2.652e-16
   O2              1.326e-16   1.366e-16   -15.877   -15.865     0.013     29.51
S(-2)         0.000e+00
   HS-             0.000e+00   0.000e+00  -121.330  -121.458    -0.128     20.30
   H2S             0.000e+00   0.000e+00  -121.705  -121.692     0.013     33.43
   S-2             0.000e+00   0.000e+00  -126.910  -127.365    -0.455     (0)  
   (H2S)2          0.000e+00   0.000e+00  -244.794  -244.781     0.013     30.48
S(6)          4.977e-02
   SO4-2           3.995e-02   1.385e-02    -1.398    -1.859    -0.460     13.52
   NaSO4-          9.823e-03   7.554e-03    -2.008    -2.122    -0.114     18.08
   Na2SO4          8.790e-08   9.025e-08    -7.056    -7.045     0.011     53.68
   HSO4-           6.802e-08   5.240e-08    -7.167    -7.281    -0.113     39.73

------------------------------Saturation indices-------------------------------

  Phase               SI** log IAP   log K(288 K,   1 atm)

  H2(g)           -36.90    -39.97   -3.08  H2
  H2O(g)           -1.77     -0.00    1.77  H2O
  H2S(g)         -120.82   -128.78   -7.96  H2S
  Mirabilite       -2.77     -4.19   -1.42  Na2SO4:10H2O
  O2(g)           -13.05    -15.86   -2.81  O2
  Sulfur          -89.95    -84.83    5.12  S
  Thenardite       -4.96     -4.18    0.78  Na2SO4

**For a gas, SI = log10(fugacity). Fugacity = pressure * phi / 1 atm.
  For ideal gases, phi = 1.

Reaction step 5.

Using solution 1.	
Using temperature 1.	
Using pressure 1.	
Using reaction 1.	

Reaction 1.	

	  5.000e-02 moles of the following reaction have been added:

	                 Relative
	Reactant            moles

	Na2SO4               1.00000

	                 Relative
	Element             moles
	Na                   2.00000
	O                    4.00000
	S                    1.00000

-----------------------------Solution composition------------------------------

	Elements           Molality       Moles

	Na                1.000e-01   1.000e-01
	S                 5.000e-02   5.000e-02

----------------------------Description of solution----------------------------

                                       pH  =   7.319      Charge balance
                                       pe  =  11.370      Adjusted to redox equilibrium
      Specific Conductance (µS/cm,  15°C)  = 7412
                          Density (g/cm³)  =   1.00562
                               Volume (L)  =   1.00148
                        Viscosity (mPa s)  =   1.16457
                        Activity of water  =   0.998
                 Ionic strength (mol/kgw)  =   1.302e-01
                       Mass of water (kg)  =   1.000e+00
                 Total alkalinity (eq/kg)  =   1.030e-17
                         Temperature (°C)  =  15.00
                  Electrical balance (eq)  =  -1.652e-11
 Percent error, 100*(Cat-|An|)/(Cat+|An|)  =  -0.00
                               Iterations  =  14
                                  Total H  = 1.110124e+02
                                  Total O  = 5.570622e+01

----------------------------Distribution of species----------------------------

                                               Log       Log       Log    mole V
   Species          Molality    Activity  Molality  Activity     Gamma   cm³/mol

   OH-             1.268e-07   9.443e-08    -6.897    -7.025    -0.128     -4.20
   H+              5.867e-08   4.793e-08    -7.232    -7.319    -0.088      0.00
   H2O             5.551e+01   9.976e-01     1.744    -0.001     0.000     18.03
H(0)          0.000e+00
   H2              0.000e+00   0.000e+00   -40.498   -40.485     0.014     14.15
Na            1.000e-01
   Na+             9.011e-02   6.970e-02    -1.045    -1.157    -0.112     -1.62
   NaSO4-          9.890e-03   7.604e-03    -2.005    -2.119    -0.114     18.09
   Na2SO4          8.882e-08   9.121e-08    -7.051    -7.040     0.012     53.68
O(0)          2.822e-15
   O2              1.411e-15   1.454e-15   -14.850   -14.837     0.013     29.51
S(-2)         0.000e+00
   HS-             0.000e+00   0.000e+00  -123.383  -123.511    -0.128     20.31
   H2S             0.000e+00   0.000e+00  -123.759  -123.746     0.013     33.43
   S-2             0.000e+00   0.000e+00  -128.962  -129.418    -0.455     (0)  
   (H2S)2          0.000e+00   0.000e+00  -248.901  -248.888     0.013     30.48
S(6)          5.000e-02
   SO4-2           4.011e-02   1.388e-02    -1.397    -1.857    -0.461     13.52
   NaSO4-          9.890e-03   7.604e-03    -2.005    -2.119    -0.114     18.09
   Na2SO4          8.882e-08   9.121e-08    -7.051    -7.040     0.012     53.68
   HSO4-           6.817e-08   5.250e-08    -7.166    -7.280    -0.113     39.73

------------------------------Saturation indices-------------------------------

  Phase               SI** log IAP   log K(288 K,   1 atm)

  H2(g)           -37.41    -40.48   -3.08  H2
  H2O(g)           -1.77     -0.00    1.77  H2O
  H2S(g)         -122.87   -130.83   -7.96  H2S
  Mirabilite       -2.76     -4.18   -1.42  Na2SO4:10H2O
  O2(g)           -12.03    -14.84   -2.81  O2
  Sulfur          -91.49    -86.37    5.12  S
  Thenardite       -4.95     -4.17    0.78  Na2SO4

**For a gas, SI = log10(fugacity). Fugacity = pressure * phi / 1 atm.
  For ideal gases, phi = 1.

Reaction step 6.

Using solution 1.	
Using temperature 1.	
Using pressure 1.	
Using reaction 1.	

Reaction 1.	

	  5.006e-02 moles of the following reaction have been added:

	                 Relative
	Reactant            moles

	Na2SO4               1.00000

	                 Relative
	Element             moles
	Na                   2.00000
	O                    4.00000
	S                    1.00000

-----------------------------Solution composition------------------------------

	Elements           Molality       Moles

	Na                1.001e-01   1.001e-01
	S                 5.006e-02   5.006e-02

----------------------------Description of solution----------------------------

                                       pH  =   7.319      Charge balance
                                       pe  =  11.242      Adjusted to redox equilibrium
      Specific Conductance (µS/cm,  15°C)  = 7419
                          Density (g/cm³)  =   1.00562
                               Volume (L)  =   1.00148
                        Viscosity (mPa s)  =   1.16460
                        Activity of water  =   0.998
                 Ionic strength (mol/kgw)  =   1.304e-01
                       Mass of water (kg)  =   1.000e+00
                 Total alkalinity (eq/kg)  =   1.201e-17
                         Temperature (°C)  =  15.00
                  Electrical balance (eq)  =  -1.884e-11
 Percent error, 100*(Cat-|An|)/(Cat+|An|)  =  -0.00
                               Iterations  =  14
                                  Total H  = 1.110124e+02
                                  Total O  = 5.570646e+01

----------------------------Distribution of species----------------------------

                                               Log       Log       Log    mole V
   Species          Molality    Activity  Molality  Activity     Gamma   cm³/mol

   OH-             1.269e-07   9.444e-08    -6.897    -7.025    -0.128     -4.20
   H+              5.866e-08   4.792e-08    -7.232    -7.319    -0.088      0.00
   H2O             5.551e+01   9.976e-01     1.744    -0.001     0.000     18.03
H(0)          0.000e+00
   H2              0.000e+00   0.000e+00   -40.241   -40.227     0.014     14.15
Na            1.001e-01
   Na+             9.021e-02   6.977e-02    -1.045    -1.156    -0.112     -1.62
   NaSO4-          9.908e-03   7.617e-03    -2.004    -2.118    -0.114     18.09
   Na2SO4          8.906e-08   9.146e-08    -7.050    -7.039     0.012     53.68
O(0)          8.619e-16
   O2              4.310e-16   4.441e-16   -15.366   -15.353     0.013     29.51
S(-2)         0.000e+00
   HS-             0.000e+00   0.000e+00  -122.353  -122.481    -0.128     20.31
   H2S             0.000e+00   0.000e+00  -122.729  -122.716     0.013     33.43
   S-2             0.000e+00   0.000e+00  -127.931  -128.387    -0.456     (0)  
   (H2S)2          0.000e+00   0.000e+00  -246.840  -246.827     0.013     30.48
S(6)          5.006e-02
   SO4-2           4.015e-02   1.389e-02    -1.396    -1.857    -0.461     13.52
   NaSO4-          9.908e-03   7.617e-03    -2.004    -2.118    -0.114     18.09
   Na2SO4          8.906e-08   9.146e-08    -7.050    -7.039     0.012     53.68
   HSO4-           6.821e-08   5.253e-08    -7.166    -7.280    -0.113     39.73

------------------------------Saturation indices-------------------------------

  Phase               SI** log IAP   log K(288 K,   1 atm)

  H2(g)           -37.15    -40.23   -3.08  H2
  H2O(g)           -1.77     -0.00    1.77  H2O
  H2S(g)         -121.84   -129.80   -7.96  H2S
  Mirabilite       -2.76     -4.18   -1.42  Na2SO4:10H2O
  O2(g)           -12.54    -15.35   -2.81  O2
  Sulfur          -90.72    -85.59    5.12  S
  Thenardite       -4.95     -4.17    0.78  Na2SO4

**For a gas, SI = log10(fugacity). Fugacity = pressure * phi / 1 atm.
  For ideal gases, phi = 1.

Reaction step 7.

Using solution 1.	
Using temperature 1.	
Using pressure 1.	
Using reaction 1.	

Reaction 1.	

	  5.050e-02 moles of the following reaction have been added:

	                 Relative
	Reactant            moles

	Na2SO4               1.00000

	                 Relative
	Element             moles
	Na                   2.00000
	O                    4.00000
	S                    1.00000

-----------------------------Solution composition------------------------------

	Elements           Molality       Moles

	Na                1.010e-01   1.010e-01
	S                 5.050e-02   5.050e-02

----------------------------Description of solution----------------------------

                                       pH  =   7.320      Charge balance
                                       pe  =  -1.514      Adjusted to redox equilibrium
      Specific Conductance (µS/cm,  15°C)  = 7477
                          Density (g/cm³)  =   1.00568
                               Volume (L)  =   1.00148
                        Viscosity (mPa s)  =   1.16482
                        Activity of water  =   0.998
                 Ionic strength (mol/kgw)  =   1.314e-01
                       Mass of water (kg)  =   1.000e+00
                 Total alkalinity (eq/kg)  =   6.247e-17
                         Temperature (°C)  =  15.00
                  Electrical balance (eq)  =   1.707e-15
 Percent error, 100*(Cat-|An|)/(Cat+|An|)  =   0.00
                               Iterations  =  14
                                  Total H  = 1.110124e+02
                                  Total O  = 5.570822e+01

----------------------------Distribution of species----------------------------

                                               Log       Log       Log    mole V
   Species          Molality    Activity  Molality  Activity     Gamma   cm³/mol

   OH-             1.271e-07   9.455e-08    -6.896    -7.024    -0.129     -4.20
   H+              5.862e-08   4.786e-08    -7.232    -7.320    -0.088      0.00
   H2O             5.551e+01   9.976e-01     1.744    -0.001     0.000     18.03
H(0)          3.711e-15
   H2              1.855e-15   1.915e-15   -14.732   -14.718     0.014     14.15
Na            1.010e-01
   Na+             9.096e-02   7.031e-02    -1.041    -1.153    -0.112     -1.62
   NaSO4-          1.004e-02   7.713e-03    -1.998    -2.113    -0.114     18.10
   Na2SO4          9.087e-08   9.334e-08    -7.042    -7.030     0.012     53.68
O(0)          0.000e+00
   O2              0.000e+00   0.000e+00   -66.385   -66.372     0.013     29.51
S(-2)         6.913e-21
   HS-             4.869e-21   3.621e-21   -20.313   -20.441    -0.129     20.31
   H2S             2.044e-21   2.107e-21   -20.689   -20.676     0.013     33.43
   S-2             1.288e-26   4.499e-27   -25.890   -26.347    -0.457     (0)  
   (H2S)2          0.000e+00   0.000e+00   -42.762   -42.749     0.013     30.48
S(6)          5.050e-02
   SO4-2           4.046e-02   1.396e-02    -1.393    -1.855    -0.462     13.53
   NaSO4-          1.004e-02   7.713e-03    -1.998    -2.113    -0.114     18.10
   Na2SO4          9.087e-08   9.334e-08    -7.042    -7.030     0.012     53.68
   HSO4-           6.850e-08   5.272e-08    -7.164    -7.278    -0.114     39.73

------------------------------Saturation indices-------------------------------

  Phase               SI** log IAP   log K(288 K,   1 atm)

  H2(g)           -11.64    -14.72   -3.08  H2
  H2O(g)           -1.77     -0.00    1.77  H2O
  H2S(g)          -19.80    -27.76   -7.96  H2S
  Mirabilite       -2.75     -4.17   -1.42  Na2SO4:10H2O
  O2(g)           -63.56    -66.37   -2.81  O2
  Sulfur          -14.19     -9.06    5.12  S
  Thenardite       -4.94     -4.16    0.78  Na2SO4

**For a gas, SI = log10(fugacity). Fugacity = pressure * phi / 1 atm.
  For ideal gases, phi = 1.

Reaction step 8.

Using solution 1.	
Using temperature 1.	
Using pressure 1.	
Using reaction 1.	

Reaction 1.	

	  5.553e-02 moles of the following reaction have been added:

	                 Relative
	Reactant            moles

	Na2SO4               1.00000

	                 Relative
	Element             moles
	Na                   2.00000
	O                    4.00000
	S                    1.00000

-----------------------------Solution composition------------------------------

	Elements           Molality       Moles

	Na                1.111e-01   1.111e-01
	S                 5.553e-02   5.553e-02

----------------------------Description of solution----------------------------

                                       pH  =   7.325      Charge balance
                                       pe  =  -1.642      Adjusted to redox equilibrium
      Specific Conductance (µS/cm,  15°C)  = 8123
                          Density (g/cm³)  =   1.00633
                               Volume (L)  =   1.00155
                        Viscosity (mPa s)  =   1.16733
                        Activity of water  =   0.997
                 Ionic strength (mol/kgw)  =   1.434e-01
                       Mass of water (kg)  =   1.000e+00
                 Total alkalinity (eq/kg)  =   1.321e-17
                         Temperature (°C)  =  15.00
                  Electrical balance (eq)  =  -2.156e-11
 Percent error, 100*(Cat-|An|)/(Cat+|An|)  =  -0.00
                               Iterations  =  13
                                  Total H  = 1.110124e+02
                                  Total O  = 5.572834e+01

----------------------------Distribution of species----------------------------

                                               Log       Log       Log    mole V
   Species          Molality    Activity  Molality  Activity     Gamma   cm³/mol

   OH-             1.299e-07   9.571e-08    -6.886    -7.019    -0.133     -4.17
   H+              5.814e-08   4.727e-08    -7.236    -7.325    -0.090      0.00
   H2O             5.551e+01   9.974e-01     1.744    -0.001     0.000     18.03
H(0)          6.510e-15
   H2              3.255e-15   3.370e-15   -14.487   -14.472     0.015     14.15
Na            1.111e-01
   Na+             9.948e-02   7.643e-02    -1.002    -1.117    -0.114     -1.60
   NaSO4-          1.158e-02   8.838e-03    -1.936    -2.054    -0.117     18.20
   Na2SO4          1.129e-07   1.163e-07    -6.947    -6.935     0.013     53.68
O(0)          0.000e+00
   O2              0.000e+00   0.000e+00   -66.877   -66.863     0.014     29.51
S(-2)         6.919e-20
   HS-             4.908e-20   3.617e-20   -19.309   -19.442    -0.133     20.32
[...]

  H2(g)           -11.45    -14.54   -3.09  H2
  H2O(g)           -0.01     -0.01    0.00  H2O
  H2S(g)          -26.74    -34.74   -8.00  H2S
  Mirabilite       -8.30     -2.77    5.53  Na2SO4:10H2O
  O2(g)           -41.21    -44.32   -3.11  O2
  Sulfur          -20.57    -17.09    3.48  S
  Thenardite       -2.20     -2.71   -0.51  Na2SO4

**For a gas, SI = log10(fugacity). Fugacity = pressure * phi / 1 atm.
  For ideal gases, phi = 1.

Reaction step 14.

Using solution 1.	
Using temperature 1.	
Using pressure 1.	
Using reaction 1.	

Reaction 1.	

	  3.303e-01 moles of the following reaction have been added:

	                 Relative
	Reactant            moles

	Na2SO4               1.00000

	                 Relative
	Element             moles
	Na                   2.00000
	O                    4.00000
	S                    1.00000

-----------------------------Solution composition------------------------------

	Elements           Molality       Moles

	Na                6.606e-01   6.606e-01
	S                 3.303e-01   3.303e-01

----------------------------Description of solution----------------------------

                                       pH  =   6.675      Charge balance
                                       pe  =  -1.111      Adjusted to redox equilibrium
      Specific Conductance (µS/cm, 100°C)  = 111492
                          Density (g/cm³)  =   0.99714
                               Volume (L)  =   1.04992
                        Viscosity (mPa s)  =   0.32630
                        Activity of water  =   0.987
                 Ionic strength (mol/kgw)  =   5.971e-01
                       Mass of water (kg)  =   1.000e+00
                 Total alkalinity (eq/kg)  =   5.511e-16
                         Temperature (°C)  = 100.00
                  Electrical balance (eq)  =   2.996e-10
 Percent error, 100*(Cat-|An|)/(Cat+|An|)  =   0.00
                               Iterations  =  12
                                  Total H  = 1.110124e+02
                                  Total O  = 5.682742e+01

----------------------------Distribution of species----------------------------

                                               Log       Log       Log    mole V
   Species          Molality    Activity  Molality  Activity     Gamma   cm³/mol

   OH-             4.698e-06   2.698e-06    -5.328    -5.569    -0.241     -3.75
   H+              2.897e-07   2.112e-07    -6.538    -6.675    -0.137      0.00
   H2O             5.551e+01   9.865e-01     1.744    -0.006     0.000     18.80
H(0)          5.024e-15
   H2              2.512e-15   2.902e-15   -14.600   -14.537     0.063     18.32
Na            6.606e-01
   Na+             4.614e-01   3.090e-01    -0.336    -0.510    -0.174      1.12
   NaSO4-          1.899e-01   1.264e-01    -0.722    -0.898    -0.177     19.91
   Na2SO4          4.688e-03   5.294e-03    -2.329    -2.276     0.053     29.73
O(0)          0.000e+00
   O2              0.000e+00   0.000e+00   -44.380   -44.320     0.060     33.90
S(-2)         2.029e-28
   HS-             1.502e-28   8.629e-29   -27.823   -28.064    -0.241     21.32
   H2S             5.268e-29   6.045e-29   -28.278   -28.219     0.060     46.17
   S-2             1.882e-32   2.991e-33   -31.725   -32.524    -0.799     (0)  
   (H2S)2          0.000e+00   0.000e+00   -57.330   -57.270     0.060     24.22
S(6)          3.303e-01
   NaSO4-          1.899e-01   1.264e-01    -0.722    -0.898    -0.177     19.91
   SO4-2           1.358e-01   2.043e-02    -0.867    -1.690    -0.823     14.88
   Na2SO4          4.688e-03   5.294e-03    -2.329    -2.276     0.053     29.73
   HSO4-           4.408e-06   3.092e-06    -5.356    -5.510    -0.154     42.11

------------------------------Saturation indices-------------------------------

  Phase               SI** log IAP   log K(373 K,   1 atm)

  H2(g)           -11.45    -14.54   -3.09  H2
  H2O(g)           -0.01     -0.01    0.00  H2O
  H2S(g)          -26.74    -34.74   -8.00  H2S
  Mirabilite       -8.30     -2.77    5.53  Na2SO4:10H2O
  O2(g)           -41.21    -44.32   -3.11  O2
  Sulfur          -20.57    -17.09    3.48  S
  Thenardite       -2.20     -2.71   -0.51  Na2SO4

**For a gas, SI = log10(fugacity). Fugacity = pressure * phi / 1 atm.
  For ideal gases, phi = 1.

Reaction step 15.

Using solution 1.	
Using temperature 1.	
Using pressure 1.	
Using reaction 1.	

Reaction 1.	

	  4.784e-01 moles of the following reaction have been added:

	                 Relative
	Reactant            moles

	Na2SO4               1.00000

	                 Relative
	Element             moles
	Na                   2.00000
	O                    4.00000
	S                    1.00000

-----------------------------Solution composition------------------------------

	Elements           Molality       Moles

	Na                9.568e-01   9.568e-01
	S                 4.784e-01   4.784e-01

----------------------------Description of solution----------------------------

                                       pH  =   6.682      Charge balance
                                       pe  =   6.257      Adjusted to redox equilibrium
      Specific Conductance (µS/cm, 100°C)  = 144762
                          Density (g/cm³)  =   1.01375
                               Volume (L)  =   1.05347
                        Viscosity (mPa s)  =   0.34739
                        Activity of water  =   0.981
                 Ionic strength (mol/kgw)  =   8.184e-01
                       Mass of water (kg)  =   1.000e+00
                 Total alkalinity (eq/kg)  =  -5.434e-17
                         Temperature (°C)  = 100.00
                  Electrical balance (eq)  =  -6.106e-15
 Percent error, 100*(Cat-|An|)/(Cat+|An|)  =  -0.00
                               Iterations  =  10
                                  Total H  = 1.110124e+02
                                  Total O  = 5.741982e+01

----------------------------Distribution of species----------------------------

                                               Log       Log       Log    mole V
   Species          Molality    Activity  Molality  Activity     Gamma   cm³/mol

   OH-             4.959e-06   2.722e-06    -5.305    -5.565    -0.261     -3.25
   H+              2.896e-07   2.082e-07    -6.538    -6.682    -0.143      0.00
   H2O             5.551e+01   9.809e-01     1.744    -0.008     0.000     18.80
H(0)          8.479e-30
   H2              4.239e-30   5.167e-30   -29.373   -29.287     0.086     18.32
Na            9.568e-01
   Na+             6.435e-01   4.323e-01    -0.191    -0.364    -0.173      1.20
   NaSO4-          2.937e-01   1.973e-01    -0.532    -0.705    -0.173     21.21
   Na2SO4          9.788e-03   1.156e-02    -2.009    -1.937     0.072     29.73
O(0)          2.472e-15
   O2              1.236e-15   1.492e-15   -14.908   -14.826     0.082     33.90
S(-2)         0.000e+00
   HS-             0.000e+00   0.000e+00   -86.750   -87.011    -0.261     21.58
   H2S             0.000e+00   0.000e+00   -87.253   -87.172     0.082     46.17
   S-2             0.000e+00   0.000e+00   -90.612   -91.465    -0.852     (0)  
   (H2S)2          0.000e+00   0.000e+00  -175.258  -175.176     0.082     24.22
S(6)          4.784e-01
   NaSO4-          2.937e-01   1.973e-01    -0.532    -0.705    -0.173     21.21
   SO4-2           1.749e-01   2.280e-02    -0.757    -1.642    -0.885     15.52
   Na2SO4          9.788e-03   1.156e-02    -2.009    -1.937     0.072     29.73
   HSO4-           4.669e-06   3.401e-06    -5.331    -5.468    -0.138     42.33

------------------------------Saturation indices-------------------------------

  Phase               SI** log IAP   log K(373 K,   1 atm)

  H2(g)           -26.20    -29.29   -3.09  H2
  H2O(g)           -0.01     -0.01    0.00  H2O
  H2S(g)          -85.69    -93.69   -8.00  H2S
  Mirabilite       -7.99     -2.45    5.53  Na2SO4:10H2O
  O2(g)           -11.71    -14.83   -3.11  O2
  Sulfur          -64.78    -61.29    3.48  S
  Thenardite       -1.86     -2.37   -0.51  Na2SO4

**For a gas, SI = log10(fugacity). Fugacity = pressure * phi / 1 atm.
  For ideal gases, phi = 1.

Reaction step 16.

Using solution 1.	
Using temperature 1.	
Using pressure 1.	
Using reaction 1.	

Reaction 1.	

	  5.229e-01 moles of the following reaction have been added:

	                 Relative
	Reactant            moles

	Na2SO4               1.00000

	                 Relative
	Element             moles
	Na                   2.00000
	O                    4.00000
	S                    1.00000

-----------------------------Solution composition------------------------------

	Elements           Molality       Moles

	Na                1.046e+00   1.046e+00
	S                 5.229e-01   5.229e-01

----------------------------Description of solution----------------------------

                                       pH  =   6.682      Charge balance
                                       pe  =  -1.001      Adjusted to redox equilibrium
      Specific Conductance (µS/cm, 100°C)  = 153719
                          Density (g/cm³)  =   1.01866
                               Volume (L)  =   1.05459
                        Viscosity (mPa s)  =   0.35395
                        Activity of water  =   0.979
                 Ionic strength (mol/kgw)  =   8.826e-01
                       Mass of water (kg)  =   1.000e+00
                 Total alkalinity (eq/kg)  =  -6.409e-17
                         Temperature (°C)  = 100.00
                  Electrical balance (eq)  =   2.554e-15
 Percent error, 100*(Cat-|An|)/(Cat+|An|)  =   0.00
                               Iterations  =  13
                                  Total H  = 1.110124e+02
                                  Total O  = 5.759766e+01

----------------------------Distribution of species----------------------------

                                               Log       Log       Log    mole V
   Species          Molality    Activity  Molality  Activity     Gamma   cm³/mol

   OH-             5.009e-06   2.720e-06    -5.300    -5.565    -0.265     -3.11
   H+              2.903e-07   2.080e-07    -6.537    -6.682    -0.145      0.00
   H2O             5.551e+01   9.793e-01     1.744    -0.009     0.000     18.80
H(0)          2.740e-15
   H2              1.370e-15   1.696e-15   -14.863   -14.771     0.093     18.32
Na            1.046e+00
   Na+             6.969e-01   4.695e-01    -0.157    -0.328    -0.171      1.22
   NaSO4-          3.255e-01   2.197e-01    -0.487    -0.658    -0.171     21.56
   Na2SO4          1.168e-02   1.399e-02    -1.932    -1.854     0.078     29.73
O(0)          0.000e+00
   O2              0.000e+00   0.000e+00   -43.948   -43.860     0.088     33.90
S(-2)         2.808e-29
   HS-             2.150e-29   1.168e-29   -28.667   -28.933    -0.265     21.65
   H2S             6.573e-30   8.055e-30   -29.182   -29.094     0.088     46.17
   S-2             3.010e-33   4.110e-34   -32.521   -33.386    -0.865     (0)  
   (H2S)2          0.000e+00   0.000e+00   -59.109   -59.021     0.088     24.22
S(6)          5.229e-01
   NaSO4-          3.255e-01   2.197e-01    -0.487    -0.658    -0.171     21.56
   SO4-2           1.857e-01   2.337e-02    -0.731    -1.631    -0.900     15.70
   Na2SO4          1.168e-02   1.399e-02    -1.932    -1.854     0.078     29.73
   HSO4-           4.719e-06   3.484e-06    -5.326    -5.458    -0.132     42.39

------------------------------Saturation indices-------------------------------

  Phase               SI** log IAP   log K(373 K,   1 atm)

  H2(g)           -11.68    -14.77   -3.09  H2
  H2O(g)           -0.01     -0.01    0.00  H2O
  H2S(g)          -27.61    -35.61   -8.00  H2S
  Mirabilite       -7.91     -2.38    5.53  Na2SO4:10H2O
  O2(g)           -40.75    -43.86   -3.11  O2
  Sulfur          -21.21    -17.73    3.48  S
  Thenardite       -1.77     -2.29   -0.51  Na2SO4

**For a gas, SI = log10(fugacity). Fugacity = pressure * phi / 1 atm.
  For ideal gases, phi = 1.

Reaction step 17.

Using solution 1.	
Using temperature 1.	
Using pressure 1.	
Using reaction 1.	

Reaction 1.	

	  7.003e-01 moles of the following reaction have been added:

	                 Relative
	Reactant            moles

	Na2SO4               1.00000

	                 Relative
	Element             moles
	Na                   2.00000
	O                    4.00000
	S                    1.00000

-----------------------------Solution composition------------------------------

	Elements           Molality       Moles

	Na                1.401e+00   1.401e+00
	S                 7.003e-01   7.003e-01

----------------------------Description of solution----------------------------

                                       pH  =   6.680      Charge balance
                                       pe  =  -1.150      Adjusted to redox equilibrium
      Specific Conductance (µS/cm, 100°C)  = 185639
                          Density (g/cm³)  =   1.03792
                               Volume (L)  =   1.05930
                        Viscosity (mPa s)  =   0.38120
                        Activity of water  =   0.973
                 Ionic strength (mol/kgw)  =   1.131e+00
                       Mass of water (kg)  =   1.000e+00
                 Total alkalinity (eq/kg)  =  -7.680e-17
                         Temperature (°C)  = 100.00
                  Electrical balance (eq)  =   2.609e-15
 Percent error, 100*(Cat-|An|)/(Cat+|An|)  =   0.00
                               Iterations  =  13
                                  Total H  = 1.110124e+02
                                  Total O  = 5.830734e+01

----------------------------Distribution of species----------------------------

                                               Log       Log       Log    mole V
   Species          Molality    Activity  Molality  Activity     Gamma   cm³/mol

   OH-             5.129e-06   2.688e-06    -5.290    -5.571    -0.281     -2.59
   H+              2.948e-07   2.090e-07    -6.531    -6.680    -0.149      0.00
   H2O             5.551e+01   9.727e-01     1.744    -0.012     0.000     18.80
H(0)          5.163e-15
   H2              2.581e-15   3.393e-15   -14.588   -14.469     0.119     18.32
Na            1.401e+00
   Na+             9.050e-01   6.203e-01    -0.043    -0.207    -0.164      1.29
   NaSO4-          4.535e-01   3.142e-01    -0.343    -0.503    -0.159     22.81
   Na2SO4          2.099e-02   2.642e-02    -1.678    -1.578     0.100     29.73
O(0)          0.000e+00
   O2              0.000e+00   0.000e+00   -44.581   -44.468     0.113     33.90
S(-2)         5.109e-28
   HS-             3.990e-28   2.091e-28   -27.399   -27.680    -0.281     21.90
   H2S             1.118e-28   1.450e-28   -27.952   -27.839     0.113     46.17
   S-2             5.888e-32   7.324e-33   -31.230   -32.135    -0.905     (0)  
   (H2S)2          0.000e+00   0.000e+00   -56.624   -56.510     0.113     24.22
S(6)          7.003e-01
   NaSO4-          4.535e-01   3.142e-01    -0.343    -0.503    -0.159     22.81
   SO4-2           2.257e-01   2.530e-02    -0.646    -1.597    -0.950     16.40
   Na2SO4          2.099e-02   2.642e-02    -1.678    -1.578     0.100     29.73
   HSO4-           4.835e-06   3.790e-06    -5.316    -5.421    -0.106     42.59

------------------------------Saturation indices-------------------------------

  Phase               SI** log IAP   log K(373 K,   1 atm)

  H2(g)           -11.38    -14.47   -3.09  H2
  H2O(g)           -0.02     -0.01    0.00  H2O
  H2S(g)          -26.36    -34.36   -8.00  H2S
  Mirabilite       -7.67     -2.13    5.53  Na2SO4:10H2O
  O2(g)           -41.35    -44.47   -3.11  O2
  Sulfur          -20.26    -16.78    3.48  S
  Thenardite       -1.50     -2.01   -0.51  Na2SO4

**For a gas, SI = log10(fugacity). Fugacity = pressure * phi / 1 atm.
  For ideal gases, phi = 1.

Reaction step 18.

Using solution 1.	
Using temperature 1.	
Using pressure 1.	
Using reaction 1.	

Reaction 1.	

	  1.184e+00 moles of the following reaction have been added:

	                 Relative
	Reactant            moles

	Na2SO4               1.00000

	                 Relative
	Element             moles
	Na                   2.00000
	O                    4.00000
	S                    1.00000

-----------------------------Solution composition------------------------------

	Elements           Molality       Moles

	Na                2.367e+00   2.367e+00
	S                 1.184e+00   1.184e+00

----------------------------Description of solution----------------------------

                                       pH  =   6.659      Charge balance
                                       pe  =   6.208      Adjusted to redox equilibrium
      Specific Conductance (µS/cm, 100°C)  = 249469
                          Density (g/cm³)  =   1.08806
                               Volume (L)  =   1.07359
                        Viscosity (mPa s)  =   0.46438
                        Activity of water  =   0.955
                 Ionic strength (mol/kgw)  =   1.762e+00
                       Mass of water (kg)  =   1.000e+00
                 Total alkalinity (eq/kg)  =   5.134e-16
                         Temperature (°C)  = 100.00
                  Electrical balance (eq)  =   8.774e-13
 Percent error, 100*(Cat-|An|)/(Cat+|An|)  =   0.00
                               Iterations  =  10
                                  Total H  = 1.110124e+02
                                  Total O  = 6.024062e+01

----------------------------Distribution of species----------------------------

                                               Log       Log       Log    mole V
   Species          Molality    Activity  Molality  Activity     Gamma   cm³/mol

   OH-             5.114e-06   2.519e-06    -5.291    -5.599    -0.308     -1.37
   H+              3.142e-07   2.191e-07    -6.503    -6.659    -0.157      0.00
   H2O             5.551e+01   9.554e-01     1.744    -0.020     0.000     18.80
H(0)          9.373e-30
   H2              4.686e-30   7.175e-30   -29.329   -29.144     0.185     18.32
Na            2.367e+00
   Na+             1.442e+00   1.058e+00     0.159     0.024    -0.135      1.42
   NaSO4-          8.029e-01   6.109e-01    -0.095    -0.214    -0.119     25.50
   Na2SO4          6.117e-02   8.758e-02    -1.213    -1.058     0.156     29.73
O(0)          9.786e-16
   O2              4.893e-16   7.340e-16   -15.310   -15.134     0.176     33.90
S(-2)         0.000e+00
   HS-             0.000e+00   0.000e+00   -85.963   -86.270    -0.308     22.43
   H2S             0.000e+00   0.000e+00   -86.585   -86.409     0.176     46.17
   S-2             0.000e+00   0.000e+00   -89.772   -90.746    -0.974     (0)  
   (H2S)2          0.000e+00   0.000e+00  -173.827  -173.651     0.176     24.22
S(6)          1.184e+00
   NaSO4-          8.029e-01   6.109e-01    -0.095    -0.214    -0.119     25.50
   SO4-2           3.196e-01   2.885e-02    -0.495    -1.540    -1.044     18.10
   Na2SO4          6.117e-02   8.758e-02    -1.213    -1.058     0.156     29.73
   HSO4-           4.800e-06   4.530e-06    -5.319    -5.344    -0.025     43.00

------------------------------Saturation indices-------------------------------

  Phase               SI** log IAP   log K(373 K,   1 atm)

  H2(g)           -26.06    -29.14   -3.09  H2
  H2O(g)           -0.02     -0.02    0.00  H2O
  H2S(g)          -84.93    -92.93   -8.00  H2S
  Mirabilite       -7.22     -1.69    5.53  Na2SO4:10H2O
  O2(g)           -12.02    -15.13   -3.11  O2
  Sulfur          -64.16    -60.67    3.48  S
  Thenardite       -0.98     -1.49   -0.51  Na2SO4

**For a gas, SI = log10(fugacity). Fugacity = pressure * phi / 1 atm.
  For ideal gases, phi = 1.

------------------
End of simulation.
------------------

-------------------------------------
Reading input data for simulation 11.
-------------------------------------

