   Input file: Vm_NaF
  Output file: Vm_NaF.out
Database file: ../database/phreeqc.dat

------------------
Reading data base.
------------------

	SOLUTION_MASTER_SPECIES
	SOLUTION_SPECIES
	PHASES
	GAS_BINARY_PARAMETERS
	EXCHANGE_MASTER_SPECIES
	EXCHANGE_SPECIES
	SURFACE_MASTER_SPECIES
	SURFACE_SPECIES
	MEAN_GAMMAS
	RATES
	END
------------------------------------
Reading input data for simulation 1.
------------------------------------

	database ../database/phreeqc.dat
	SELECTED_OUTPUT 101
	    file                 Vm_NaF_101.sel
	USER_PUNCH 101
	    headings Mu SC
	    start
	10 PUNCH STR_F$(MU, 20, 12)
	20 PUNCH STR_F$(SC, 20, 10)
	    end
	SOLUTION 1
	 pH 7 charge
	END
-------------------------------------------
Beginning of initial solution calculations.
-------------------------------------------

Initial solution 1.	

-----------------------------Solution composition------------------------------

	Elements           Molality       Moles

	Pure water     

----------------------------Description of solution----------------------------

                                       pH  =   6.997      Charge balance
                                       pe  =   4.000    
      Specific Conductance (µS/cm,  25°C)  = 0
                          Density (g/cm³)  =   0.99704
                               Volume (L)  =   1.00297
                        Viscosity (mPa s)  =   0.89002
                        Activity of water  =   1.000
                 Ionic strength (mol/kgw)  =   1.006e-07
                       Mass of water (kg)  =   1.000e+00
                 Total alkalinity (eq/kg)  =   3.040e-17
                         Temperature (°C)  =  25.00
                  Electrical balance (eq)  =  -3.040e-17
 Percent error, 100*(Cat-|An|)/(Cat+|An|)  =  -0.00
                               Iterations  =   2
                                  Total H  = 1.110124e+02
                                  Total O  = 5.550622e+01

----------------------------Distribution of species----------------------------

                                               Log       Log       Log    mole V
   Species          Molality    Activity  Molality  Activity     Gamma   cm³/mol

   OH-             1.006e-07   1.006e-07    -6.997    -6.997    -0.000     -4.14
   H+              1.006e-07   1.006e-07    -6.997    -6.997    -0.000      0.00
   H2O             5.551e+01   1.000e+00     1.744    -0.000     0.000     18.07
H(0)          1.433e-25
   H2              7.166e-26   7.166e-26   -25.145   -25.145     0.000     14.99
O(0)          0.000e+00
   O2              0.000e+00   0.000e+00   -42.073   -42.073     0.000     30.40

------------------------------Saturation indices-------------------------------

  Phase               SI** log IAP   log K(298 K,   1 atm)

  H2(g)           -22.05    -25.14   -3.10  H2
  H2O(g)           -1.50     -0.00    1.50  H2O
  O2(g)           -39.18    -42.07   -2.89  O2

**For a gas, SI = log10(fugacity). Fugacity = pressure * phi / 1 atm.
  For ideal gases, phi = 1.

------------------
End of simulation.
------------------

------------------------------------
Reading input data for simulation 2.
------------------------------------

	USE solution 1
	REACTION_TEMPERATURE
	 25.000000
	REACTION_PRESSURE
	 1.000000
	REACTION
	 NaF 1
	0 0.024030 0.026730 0.029430 0.032170 0.055600 0.071470 0.082280 0.096750 0.100100 0.100840 0.119920 0.140000 0.158450 0.180380 0.183090 0.201200 0.206570 0.220100 0.231260 0.268450 0.293150 0.296340 0.300330 0.330420 0.355200 0.382290 0.399850 0.404860 0.439120 0.479350 0.492590 0.499910 0.524440 0.553090 0.581590 0.590120 0.600200 0.610100 0.638660 0.666520 0.667370 0.688110 0.696180 0.708040 0.710010 0.724820 0.753530 0.782100 0.797440 0.810950 0.839940 0.868810 0.897380 0.926360 
	USER_GRAPH
	 -headings 25.oC-1.atm
	 -axis_titles "NaF / (mol/kg H2O)" "NaF molar volume / (cm3/mol)"
	10 data 0, -2.508000, -2.408000, -2.360000, -2.441000, -2.174000, -2.061000, -2.038000, -1.963000, -1.805000, -2.042000, -1.741000, -1.679000, -1.745000, -1.564000, -1.641000, -1.557000, -1.641000, -1.456000, -1.565000, -1.447000, -1.388000, -1.311000, -1.263000, -1.285000, -1.222000, -1.234000, -1.043000, -1.075000, -1.115000, -0.877000, -0.972000, -0.845000, -0.926000, -0.865000, -0.802000, -0.669000, -0.649000, -0.754000, -0.693000, -0.621000, -0.635000, -0.577000, -0.579000, -0.463000, -0.510000, -0.521000, -0.467000, -0.406000, -0.321000, -0.347000, -0.295000, -0.241000, -0.190000, -0.118000, 
	20 dim d(55)
	30 for i = 1 to step_no : read d(i) : next i
	40 if step_no = 1 then put(rho, 10) : if tc = 0 then put(0, 1) : put(0, 2)
	50 if step_no > 1 then F = tot("F") : Vmol = (1e3 + F * 41.9882) / (F * rho) - 1e3 / (F * get(10))
	60 if step_no = 1 then dif = 0 else dif = Vmol - d(step_no)
	70 put(abs(dif) + get(1), 1) : put(1 + get(2), 2)
	100 if step_no = 1 then goto 150
	110 plot_xy F^0.5, d(step_no), symbol = XCross, line_w = 0, color = Black
	120 plot_xy F^0.5, Vmol, symbol = None, color = Black
	130 if step_no = 55 then print 'Laliberte, 25C, AAD ' + str_f$(get(1) / get(2), 0, 3) + ' cm3/mol'
	150 end
	END
-----------------------------------------
Beginning of batch-reaction calculations.
-----------------------------------------

Reaction step 1.

Using solution 1.	
Using temperature 1.	
Using pressure 1.	
Using reaction 1.	

Reaction 1.	

	  0.000e+00 moles of the following reaction have been added:

	                 Relative
	Reactant            moles

	NaF                  1.00000

	                 Relative
	Element             moles
	F                    1.00000
	Na                   1.00000

-----------------------------Solution composition------------------------------

	Elements           Molality       Moles

	Pure water     

----------------------------Description of solution----------------------------

                                       pH  =   6.997      Charge balance
                                       pe  =   4.000      Adjusted to redox equilibrium
      Specific Conductance (µS/cm,  25°C)  = 0
                          Density (g/cm³)  =   0.99704
                               Volume (L)  =   1.00297
                        Viscosity (mPa s)  =   0.89002
                        Activity of water  =   1.000
                 Ionic strength (mol/kgw)  =   1.006e-07
                       Mass of water (kg)  =   1.000e+00
                 Total alkalinity (eq/kg)  =   3.040e-17
                         Temperature (°C)  =  25.00
                  Electrical balance (eq)  =  -3.040e-17
 Percent error, 100*(Cat-|An|)/(Cat+|An|)  =  -0.00
                               Iterations  =   0
                                  Total H  = 1.110124e+02
                                  Total O  = 5.550622e+01

----------------------------Distribution of species----------------------------

                                               Log       Log       Log    mole V
   Species          Molality    Activity  Molality  Activity     Gamma   cm³/mol

   OH-             1.006e-07   1.006e-07    -6.997    -6.997    -0.000     -4.14
   H+              1.006e-07   1.006e-07    -6.997    -6.997    -0.000      0.00
   H2O             5.551e+01   1.000e+00     1.744    -0.000     0.000     18.07
H(0)          1.433e-25
   H2              7.166e-26   7.166e-26   -25.145   -25.145     0.000     14.99
O(0)          0.000e+00
   O2              0.000e+00   0.000e+00   -42.073   -42.073     0.000     30.40

------------------------------Saturation indices-------------------------------

  Phase               SI** log IAP   log K(298 K,   1 atm)

  H2(g)           -22.05    -25.14   -3.10  H2
  H2O(g)           -1.50     -0.00    1.50  H2O
  O2(g)           -39.18    -42.07   -2.89  O2

**For a gas, SI = log10(fugacity). Fugacity = pressure * phi / 1 atm.
  For ideal gases, phi = 1.

Reaction step 2.

Using solution 1.	
Using temperature 1.	
Using pressure 1.	
Using reaction 1.	

Reaction 1.	

	  2.403e-02 moles of the following reaction have been added:

	                 Relative
	Reactant            moles

	NaF                  1.00000

	                 Relative
	Element             moles
	F                    1.00000
	Na                   1.00000

-----------------------------Solution composition------------------------------

	Elements           Molality       Moles

	F                 2.403e-02   2.403e-02
	Na                2.403e-02   2.403e-02

----------------------------Description of solution----------------------------

                                       pH  =   7.733      Charge balance
                                       pe  =  -0.889      Adjusted to redox equilibrium
      Specific Conductance (µS/cm,  25°C)  = 2246
                          Density (g/cm³)  =   0.99812
                               Volume (L)  =   1.00290
                        Viscosity (mPa s)  =   0.89680
                        Activity of water  =   0.999
                 Ionic strength (mol/kgw)  =   2.403e-02
                       Mass of water (kg)  =   1.000e+00
                 Total alkalinity (eq/kg)  =  -3.440e-15
                         Temperature (°C)  =  25.00
                  Electrical balance (eq)  =  -1.229e-12
 Percent error, 100*(Cat-|An|)/(Cat+|An|)  =  -0.00
                               Iterations  =   8
                                  Total H  = 1.110124e+02
                                  Total O  = 5.550622e+01

----------------------------Distribution of species----------------------------

                                               Log       Log       Log    mole V
   Species          Molality    Activity  Molality  Activity     Gamma   cm³/mol

   OH-             6.379e-07   5.466e-07    -6.195    -6.262    -0.067     -3.97
   H+              2.096e-08   1.850e-08    -7.679    -7.733    -0.054      0.00
   H2O             5.551e+01   9.992e-01     1.744    -0.000     0.000     18.07
F             2.403e-02
   F-              2.403e-02   2.048e-02    -1.619    -1.689    -0.069     -1.48
   NaF             1.753e-06   1.772e-06    -5.756    -5.751     0.005      4.35
   HF              5.651e-07   5.683e-07    -6.248    -6.245     0.002     12.50
   HF2-            5.183e-08   4.465e-08    -7.285    -7.350    -0.065     22.18
H(0)          2.897e-17
   H2              1.449e-17   1.457e-17   -16.839   -16.837     0.003     14.99
Na            2.403e-02
   Na+             2.403e-02   2.076e-02    -1.619    -1.683    -0.063     -1.30
   NaF             1.753e-06   1.772e-06    -5.756    -5.751     0.005      4.35
O(0)          0.000e+00
   O2              0.000e+00   0.000e+00   -58.693   -58.690     0.002     30.40

------------------------------Saturation indices-------------------------------

  Phase               SI** log IAP   log K(298 K,   1 atm)

  H2(g)           -13.74    -16.84   -3.10  H2
  H2O(g)           -1.50     -0.00    1.50  H2O
  O2(g)           -55.80    -58.69   -2.89  O2

**For a gas, SI = log10(fugacity). Fugacity = pressure * phi / 1 atm.
  For ideal gases, phi = 1.

Reaction step 3.

Using solution 1.	
Using temperature 1.	
Using pressure 1.	
Using reaction 1.	

Reaction 1.	

	  2.673e-02 moles of the following reaction have been added:

	                 Relative
	Reactant            moles

	NaF                  1.00000

	                 Relative
	Element             moles
	F                    1.00000
	Na                   1.00000

-----------------------------Solution composition------------------------------

	Elements           Molality       Moles

	F                 2.673e-02   2.673e-02
	Na                2.673e-02   2.673e-02

----------------------------Description of solution----------------------------

                                       pH  =   7.754      Charge balance
                                       pe  =  -0.951      Adjusted to redox equilibrium
      Specific Conductance (µS/cm,  25°C)  = 2487
                          Density (g/cm³)  =   0.99824
                               Volume (L)  =   1.00289
                        Viscosity (mPa s)  =   0.89745
                        Activity of water  =   0.999
                 Ionic strength (mol/kgw)  =   2.673e-02
                       Mass of water (kg)  =   1.000e+00
                 Total alkalinity (eq/kg)  =  -1.026e-14
                         Temperature (°C)  =  25.00
                  Electrical balance (eq)  =  -2.702e-12
 Percent error, 100*(Cat-|An|)/(Cat+|An|)  =  -0.00
                               Iterations  =   8
                                  Total H  = 1.110124e+02
                                  Total O  = 5.550622e+01

----------------------------Distribution of species----------------------------

                                               Log       Log       Log    mole V
   Species          Molality    Activity  Molality  Activity     Gamma   cm³/mol

   OH-             6.744e-07   5.738e-07    -6.171    -6.241    -0.070     -3.95
   H+              2.006e-08   1.762e-08    -7.698    -7.754    -0.056      0.00
   H2O             5.551e+01   9.991e-01     1.744    -0.000     0.000     18.07
F             2.673e-02
   F-              2.673e-02   2.260e-02    -1.573    -1.646    -0.073     -1.47
   NaF             2.136e-06   2.163e-06    -5.670    -5.665     0.005      4.35
   HF              5.938e-07   5.975e-07    -6.226    -6.224     0.003     12.50
   HF2-            6.055e-08   5.182e-08    -7.218    -7.285    -0.068     22.19
H(0)          3.481e-17
   H2              1.741e-17   1.752e-17   -16.759   -16.756     0.003     14.99
Na            2.673e-02
   Na+             2.673e-02   2.295e-02    -1.573    -1.639    -0.066     -1.29
   NaF             2.136e-06   2.163e-06    -5.670    -5.665     0.005      4.35
O(0)          0.000e+00
   O2              0.000e+00   0.000e+00   -58.853   -58.850     0.003     30.40

------------------------------Saturation indices-------------------------------

  Phase               SI** log IAP   log K(298 K,   1 atm)

  H2(g)           -13.66    -16.76   -3.10  H2
  H2O(g)           -1.50     -0.00    1.50  H2O
  O2(g)           -55.96    -58.85   -2.89  O2

**For a gas, SI = log10(fugacity). Fugacity = pressure * phi / 1 atm.
  For ideal gases, phi = 1.

Reaction step 4.

Using solution 1.	
Using temperature 1.	
Using pressure 1.	
Using reaction 1.	

Reaction 1.	

	  2.943e-02 moles of the following reaction have been added:

	                 Relative
	Reactant            moles

	NaF                  1.00000

	                 Relative
	Element             moles
	F                    1.00000
	Na                   1.00000

-----------------------------Solution composition------------------------------

	Elements           Molality       Moles

	F                 2.943e-02   2.943e-02
	Na                2.943e-02   2.943e-02

----------------------------Description of solution----------------------------

                                       pH  =   7.773      Charge balance
                                       pe  =  -0.943      Adjusted to redox equilibrium
      Specific Conductance (µS/cm,  25°C)  = 2725
                          Density (g/cm³)  =   0.99836
                               Volume (L)  =   1.00289
                        Viscosity (mPa s)  =   0.89809
                        Activity of water  =   0.999
                 Ionic strength (mol/kgw)  =   2.943e-02
                       Mass of water (kg)  =   1.000e+00
                 Total alkalinity (eq/kg)  =  -4.188e-14
                         Temperature (°C)  =  25.00
                  Electrical balance (eq)  =  -7.273e-12
 Percent error, 100*(Cat-|An|)/(Cat+|An|)  =  -0.00
                               Iterations  =   8
                                  Total H  = 1.110124e+02
                                  Total O  = 5.550622e+01

----------------------------Distribution of species----------------------------

                                               Log       Log       Log    mole V
   Species          Molality    Activity  Molality  Activity     Gamma   cm³/mol

   OH-             7.095e-07   5.996e-07    -6.149    -6.222    -0.073     -3.94
   H+              1.927e-08   1.686e-08    -7.715    -7.773    -0.058      0.00
   H2O             5.551e+01   9.990e-01     1.744    -0.000     0.000     18.07
F             2.943e-02
   F-              2.943e-02   2.471e-02    -1.531    -1.607    -0.076     -1.45
   NaF             2.553e-06   2.588e-06    -5.593    -5.587     0.006      4.35
   HF              6.206e-07   6.248e-07    -6.207    -6.204     0.003     12.50
   HF2-            6.963e-08   5.924e-08    -7.157    -7.227    -0.070     22.19
H(0)          3.069e-17
   H2              1.534e-17   1.545e-17   -16.814   -16.811     0.003     14.99
Na            2.943e-02
   Na+             2.943e-02   2.512e-02    -1.531    -1.600    -0.069     -1.28
   NaF             2.553e-06   2.588e-06    -5.593    -5.587     0.006      4.35
O(0)          0.000e+00
   O2              0.000e+00   0.000e+00   -58.744   -58.742     0.003     30.40

------------------------------Saturation indices-------------------------------

  Phase               SI** log IAP   log K(298 K,   1 atm)

  H2(g)           -13.71    -16.81   -3.10  H2
  H2O(g)           -1.50     -0.00    1.50  H2O
  O2(g)           -55.85    -58.74   -2.89  O2

**For a gas, SI = log10(fugacity). Fugacity = pressure * phi / 1 atm.
  For ideal gases, phi = 1.

Reaction step 5.

Using solution 1.	
Using temperature 1.	
Using pressure 1.	
Using reaction 1.	

Reaction 1.	

	  3.217e-02 moles of the following reaction have been added:

	                 Relative
	Reactant            moles

	NaF                  1.00000

	                 Relative
	Element             moles
	F                    1.00000
	Na                   1.00000

-----------------------------Solution composition------------------------------

	Elements           Molality       Moles

	F                 3.217e-02   3.217e-02
	Na                3.217e-02   3.217e-02

----------------------------Description of solution----------------------------

                                       pH  =   7.791      Charge balance
                                       pe  =  -0.941      Adjusted to redox equilibrium
      Specific Conductance (µS/cm,  25°C)  = 2965
                          Density (g/cm³)  =   0.99848
                               Volume (L)  =   1.00288
                        Viscosity (mPa s)  =   0.89874
                        Activity of water  =   0.999
                 Ionic strength (mol/kgw)  =   3.217e-02
                       Mass of water (kg)  =   1.000e+00
                 Total alkalinity (eq/kg)  =  -1.014e-13
                         Temperature (°C)  =  25.00
                  Electrical balance (eq)  =  -1.359e-11
 Percent error, 100*(Cat-|An|)/(Cat+|An|)  =  -0.00
                               Iterations  =   8
                                  Total H  = 1.110124e+02
                                  Total O  = 5.550622e+01

----------------------------Distribution of species----------------------------

                                               Log       Log       Log    mole V
   Species          Molality    Activity  Molality  Activity     Gamma   cm³/mol

   OH-             7.439e-07   6.247e-07    -6.128    -6.204    -0.076     -3.93
   H+              1.857e-08   1.618e-08    -7.731    -7.791    -0.060      0.00
   H2O             5.551e+01   9.989e-01     1.744    -0.000     0.000     18.07
F             3.217e-02
   F-              3.217e-02   2.682e-02    -1.493    -1.572    -0.079     -1.44
   NaF             3.009e-06   3.054e-06    -5.522    -5.515     0.006      4.35
   HF              6.462e-07   6.510e-07    -6.190    -6.186     0.003     12.50
   HF2-            7.919e-08   6.699e-08    -7.101    -7.174    -0.073     22.20
H(0)          2.811e-17
   H2              1.405e-17   1.416e-17   -16.852   -16.849     0.003     14.99
Na            3.217e-02
   Na+             3.217e-02   2.731e-02    -1.493    -1.564    -0.071     -1.27
   NaF             3.009e-06   3.054e-06    -5.522    -5.515     0.006      4.35
O(0)          0.000e+00
   O2              0.000e+00   0.000e+00   -58.669   -58.666     0.003     30.40

------------------------------Saturation indices-------------------------------

  Phase               SI** log IAP   log K(298 K,   1 atm)

  H2(g)           -13.75    -16.85   -3.10  H2
  H2O(g)           -1.50     -0.00    1.50  H2O
  O2(g)           -55.77    -58.67   -2.89  O2

**For a gas, SI = log10(fugacity). Fugacity = pressure * phi / 1 atm.
  For ideal gases, phi = 1.

Reaction step 6.

Using solution 1.	
Using temperature 1.	
Using pressure 1.	
Using reaction 1.	

Reaction 1.	

	  5.560e-02 moles of the following reaction have been added:

	                 Relative
	Reactant            moles

	NaF                  1.00000

	                 Relative
	Element             moles
	F                    1.00000
	Na                   1.00000

-----------------------------Solution composition------------------------------

	Elements           Molality       Moles

	F                 5.560e-02   5.560e-02
	Na                5.560e-02   5.560e-02

----------------------------Description of solution----------------------------

                                       pH  =   7.903      Charge balance
                                       pe  =  -1.040      Adjusted to redox equilibrium
      Specific Conductance (µS/cm,  25°C)  = 4972
                          Density (g/cm³)  =   0.99951
                               Volume (L)  =   1.00282
                        Viscosity (mPa s)  =   0.90410
                        Activity of water  =   0.998
                 Ionic strength (mol/kgw)  =   5.559e-02
                       Mass of water (kg)  =   1.000e+00
                 Total alkalinity (eq/kg)  =   2.615e-17
                         Temperature (°C)  =  25.00
                  Electrical balance (eq)  =  -1.538e-16
 Percent error, 100*(Cat-|An|)/(Cat+|An|)  =  -0.00
                               Iterations  =   9
                                  Total H  = 1.110124e+02
                                  Total O  = 5.550622e+01

----------------------------Distribution of species----------------------------

                                               Log       Log       Log    mole V
   Species          Molality    Activity  Molality  Activity     Gamma   cm³/mol

   OH-             1.005e-06   8.079e-07    -5.998    -6.093    -0.095     -3.86
   H+              1.472e-08   1.250e-08    -7.832    -7.903    -0.071      0.00
   H2O             5.551e+01   9.981e-01     1.744    -0.001     0.000     18.07
F             5.560e-02
   F-              5.559e-02   4.416e-02    -1.255    -1.355    -0.100     -1.36
   NaF             8.169e-06   8.381e-06    -5.088    -5.077     0.011      4.35
   HF              8.177e-07   8.282e-07    -6.087    -6.082     0.006     12.50
   HF2-            1.722e-07   1.403e-07    -6.764    -6.853    -0.089     22.25
H(0)          2.620e-17
   H2              1.310e-17   1.328e-17   -16.883   -16.877     0.006     14.99
Na            5.560e-02
   Na+             5.559e-02   4.552e-02    -1.255    -1.342    -0.087     -1.20
   NaF             8.169e-06   8.381e-06    -5.088    -5.077     0.011      4.35
O(0)          0.000e+00
   O2              0.000e+00   0.000e+00   -58.616   -58.611     0.006     30.40

------------------------------Saturation indices-------------------------------

  Phase               SI** log IAP   log K(298 K,   1 atm)

  H2(g)           -13.78    -16.88   -3.10  H2
  H2O(g)           -1.50     -0.00    1.50  H2O
  O2(g)           -55.72    -58.61   -2.89  O2

**For a gas, SI = log10(fugacity). Fugacity = pressure * phi / 1 atm.
  For ideal gases, phi = 1.

Reaction step 7.

Using solution 1.	
Using temperature 1.	
Using pressure 1.	
Using reaction 1.	

Reaction 1.	

	  7.147e-02 moles of the following reaction have been added:

	                 Relative
	Reactant            moles

	NaF                  1.00000

	                 Relative
	Element             moles
	F                    1.00000
	Na                   1.00000

-----------------------------Solution composition------------------------------

	Elements           Molality       Moles

	F                 7.147e-02   7.147e-02
	Na                7.147e-02   7.147e-02

----------------------------Description of solution----------------------------

                                       pH  =   7.956      Charge balance
                                       pe  =  -1.065      Adjusted to redox equilibrium
      Specific Conductance (µS/cm,  25°C)  = 6291
                          Density (g/cm³)  =   1.00021
                               Volume (L)  =   1.00279
                        Viscosity (mPa s)  =   0.90761
                        Activity of water  =   0.998
                 Ionic strength (mol/kgw)  =   7.146e-02
                       Mass of water (kg)  =   1.000e+00
                 Total alkalinity (eq/kg)  =   2.026e-17
                         Temperature (°C)  =  25.00
                  Electrical balance (eq)  =  -5.368e-15
 Percent error, 100*(Cat-|An|)/(Cat+|An|)  =  -0.00
                               Iterations  =   9
                                  Total H  = 1.110124e+02
                                  Total O  = 5.550622e+01

----------------------------Distribution of species----------------------------

                                               Log       Log       Log    mole V
   Species          Molality    Activity  Molality  Activity     Gamma   cm³/mol

   OH-             1.160e-06   9.123e-07    -5.936    -6.040    -0.104     -3.81
   H+              1.319e-08   1.107e-08    -7.880    -7.956    -0.076      0.00
   H2O             5.551e+01   9.976e-01     1.744    -0.001     0.000     18.07
F             7.147e-02
   F-              7.146e-02   5.532e-02    -1.146    -1.257    -0.111     -1.31
   NaF             1.283e-05   1.326e-05    -4.892    -4.878     0.014      4.35
   HF              9.032e-07   9.182e-07    -6.044    -6.037     0.007     12.50
   HF2-            2.435e-07   1.949e-07    -6.614    -6.710    -0.097     22.28
H(0)          2.298e-17
   H2              1.149e-17   1.169e-17   -16.940   -16.932     0.008     14.99
Na            7.147e-02
   Na+             7.146e-02   5.748e-02    -1.146    -1.240    -0.095     -1.15
   NaF             1.283e-05   1.326e-05    -4.892    -4.878     0.014      4.35
O(0)          0.000e+00
   O2              0.000e+00   0.000e+00   -58.507   -58.500     0.007     30.40

------------------------------Saturation indices-------------------------------

  Phase               SI** log IAP   log K(298 K,   1 atm)

  H2(g)           -13.83    -16.93   -3.10  H2
  H2O(g)           -1.50     -0.00    1.50  H2O
  O2(g)           -55.61    -58.50   -2.89  O2

**For a gas, SI = log10(fugacity). Fugacity = pressure * phi / 1 atm.
  For ideal gases, phi = 1.

Reaction step 8.

Using solution 1.	
Using temperature 1.	
Using pressure 1.	
Using reaction 1.	

Reaction 1.	

	  8.228e-02 moles of the following reaction have been added:

	                 Relative
	Reactant            moles

	NaF                  1.00000

	                 Relative
	Element             moles
	F                    1.00000
	Na                   1.00000

-----------------------------Solution composition------------------------------

	Elements           Molality       Moles

	F                 8.228e-02   8.228e-02
	Na                8.228e-02   8.228e-02

----------------------------Description of solution----------------------------

                                       pH  =   7.986      Charge balance
                                       pe  =  -1.205      Adjusted to redox equilibrium
      Specific Conductance (µS/cm,  25°C)  = 7175
                          Density (g/cm³)  =   1.00068
                               Volume (L)  =   1.00277
                        Viscosity (mPa s)  =   0.90996
                        Activity of water  =   0.997
                 Ionic strength (mol/kgw)  =   8.226e-02
                       Mass of water (kg)  =   1.000e+00
                 Total alkalinity (eq/kg)  =   3.421e-18
                         Temperature (°C)  =  25.00
                  Electrical balance (eq)  =  -4.688e-14
 Percent error, 100*(Cat-|An|)/(Cat+|An|)  =  -0.00
                               Iterations  =   9
                                  Total H  = 1.110124e+02
                                  Total O  = 5.550622e+01

----------------------------Distribution of species----------------------------

                                               Log       Log       Log    mole V
   Species          Molality    Activity  Molality  Activity     Gamma   cm³/mol

   OH-             1.260e-06   9.778e-07    -5.900    -6.010    -0.110     -3.78
   H+              1.239e-08   1.032e-08    -7.907    -7.986    -0.079      0.00
   H2O             5.551e+01   9.972e-01     1.744    -0.001     0.000     18.07
F             8.228e-02
   F-              8.226e-02   6.270e-02    -1.085    -1.203    -0.118     -1.27
   NaF             1.649e-05   1.712e-05    -4.783    -4.766     0.016      4.35
   HF              9.525e-07   9.707e-07    -6.021    -6.013     0.008     12.50
   HF2-            2.948e-07   2.335e-07    -6.531    -6.632    -0.101     22.30
H(0)          3.796e-17
   H2              1.898e-17   1.936e-17   -16.722   -16.713     0.009     14.99
Na            8.228e-02
   Na+             8.226e-02   6.551e-02    -1.085    -1.184    -0.099     -1.13
   NaF             1.649e-05   1.712e-05    -4.783    -4.766     0.016      4.35
O(0)          0.000e+00
   O2              0.000e+00   0.000e+00   -58.947   -58.939     0.008     30.40

------------------------------Saturation indices-------------------------------

  Phase               SI** log IAP   log K(298 K,   1 atm)

  H2(g)           -13.61    -16.71   -3.10  H2
  H2O(g)           -1.50     -0.00    1.50  H2O
  O2(g)           -56.05    -58.94   -2.89  O2

**For a gas, SI = log10(fugacity). Fugacity = pressure * phi / 1 atm.
  For ideal gases, phi = 1.

Reaction step 9.

Using solution 1.	
Using temperature 1.	
Using pressure 1.	
Using reaction 1.	

Reaction 1.	

	  9.675e-02 moles of the following reaction have been added:

	                 Relative
	Reactant            moles

	NaF                  1.00000

	                 Relative
	Element             moles
	F                    1.00000
	Na                   1.00000

-----------------------------Solution composition------------------------------

	Elements           Molality       Moles

	F                 9.675e-02   9.675e-02
	Na                9.675e-02   9.675e-02

----------------------------Description of solution----------------------------

                                       pH  =   8.022      Charge balance
                                       pe  =  -1.141      Adjusted to redox equilibrium
      Specific Conductance (µS/cm,  25°C)  = 8341
                          Density (g/cm³)  =   1.00132
                               Volume (L)  =   1.00274
                        Viscosity (mPa s)  =   0.91308
                        Activity of water  =   0.997
                 Ionic strength (mol/kgw)  =   9.673e-02
                       Mass of water (kg)  =   1.000e+00
                 Total alkalinity (eq/kg)  =  -5.071e-16
                         Temperature (°C)  =  25.00
                  Electrical balance (eq)  =  -4.648e-13
 Percent error, 100*(Cat-|An|)/(Cat+|An|)  =  -0.00
                               Iterations  =   9
                                  Total H  = 1.110124e+02
                                  Total O  = 5.550622e+01

----------------------------Distribution of species----------------------------

                                               Log       Log       Log    mole V
   Species          Molality    Activity  Molality  Activity     Gamma   cm³/mol

   OH-             1.387e-06   1.060e-06    -5.858    -5.975    -0.117     -3.74
   H+              1.151e-08   9.517e-09    -7.939    -8.022    -0.083      0.00
   H2O             5.551e+01   9.967e-01     1.744    -0.001     0.000     18.07
F             9.675e-02
   F-              9.673e-02   7.235e-02    -1.014    -1.141    -0.126     -1.23
   NaF             2.196e-05   2.296e-05    -4.658    -4.639     0.019      4.35
   HF              1.010e-06   1.033e-06    -5.996    -5.986     0.010     12.50
   HF2-            3.660e-07   2.866e-07    -6.436    -6.543    -0.106     22.32
H(0)          2.397e-17
   H2              1.199e-17   1.227e-17   -16.921   -16.911     0.010     14.99
Na            9.675e-02
   Na+             9.673e-02   7.613e-02    -1.014    -1.118    -0.104     -1.10
   NaF             2.196e-05   2.296e-05    -4.658    -4.639     0.019      4.35
O(0)          0.000e+00
   O2              0.000e+00   0.000e+00   -58.553   -58.543     0.010     30.40

------------------------------Saturation indices-------------------------------

  Phase               SI** log IAP   log K(298 K,   1 atm)

  H2(g)           -13.81    -16.91   -3.10  H2
  H2O(g)           -1.50     -0.00    1.50  H2O
  O2(g)           -55.65    -58.54   -2.89  O2

**For a gas, SI = log10(fugacity). Fugacity = pressure * phi / 1 atm.
  For ideal gases, phi = 1.

Reaction step 10.

Using solution 1.	
Using temperature 1.	
Using pressure 1.	
Using reaction 1.	

Reaction 1.	

	  1.001e-01 moles of the following reaction have been added:

	                 Relative
	Reactant            moles

	NaF                  1.00000

	                 Relative
	Element             moles
	F                    1.00000
	Na                   1.00000

-----------------------------Solution composition------------------------------

	Elements           Molality       Moles

	F                 1.001e-01   1.001e-01
	Na                1.001e-01   1.001e-01

----------------------------Description of solution----------------------------

                                       pH  =   8.029      Charge balance
                                       pe  =  -1.177      Adjusted to redox equilibrium
      Specific Conductance (µS/cm,  25°C)  = 8609
                          Density (g/cm³)  =   1.00146
                               Volume (L)  =   1.00273
                        Viscosity (mPa s)  =   0.91380
                        Activity of water  =   0.997
                 Ionic strength (mol/kgw)  =   1.001e-01
                       Mass of water (kg)  =   1.000e+00
                 Total alkalinity (eq/kg)  =  -9.737e-16
                         Temperature (°C)  =  25.00
                  Electrical balance (eq)  =  -7.588e-13
 Percent error, 100*(Cat-|An|)/(Cat+|An|)  =  -0.00
                               Iterations  =   9
                                  Total H  = 1.110124e+02
                                  Total O  = 5.550622e+01

----------------------------Distribution of species----------------------------

                                               Log       Log       Log    mole V
   Species          Molality    Activity  Molality  Activity     Gamma   cm³/mol

   OH-             1.416e-06   1.078e-06    -5.849    -5.967    -0.118     -3.73
   H+              1.133e-08   9.354e-09    -7.946    -8.029    -0.083      0.00
   H2O             5.551e+01   9.966e-01     1.744    -0.001     0.000     18.07
F             1.001e-01
   F-              1.001e-01   7.454e-02    -1.000    -1.128    -0.128     -1.22
   NaF             2.332e-05   2.442e-05    -4.632    -4.612     0.020      4.35
   HF              1.022e-06   1.046e-06    -5.991    -5.981     0.010     12.50
   HF2-            3.829e-07   2.991e-07    -6.417    -6.524    -0.107     22.33
H(0)          2.735e-17
   H2              1.368e-17   1.401e-17   -16.864   -16.854     0.011     14.99
Na            1.001e-01
   Na+             1.001e-01   7.857e-02    -1.000    -1.105    -0.105     -1.09
   NaF             2.332e-05   2.442e-05    -4.632    -4.612     0.020      4.35
O(0)          0.000e+00
   O2              0.000e+00   0.000e+00   -58.668   -58.658     0.010     30.40

------------------------------Saturation indices-------------------------------

  Phase               SI** log IAP   log K(298 K,   1 atm)

  H2(g)           -13.75    -16.85   -3.10  H2
  H2O(g)           -1.50     -0.00    1.50  H2O
  O2(g)           -55.77    -58.66   -2.89  O2

**For a gas, SI = log10(fugacity). Fugacity = pressure * phi / 1 atm.
  For ideal gases, phi = 1.

Reaction step 11.

Using solution 1.	
Using temperature 1.	
Using pressure 1.	
Using reaction 1.	

Reaction 1.	

	  1.008e-01 moles of the following reaction have been added:

	                 Relative
	Reactant            moles

	NaF                  1.00000

	                 Relative
	Element             moles
	F                    1.00000
	Na                   1.00000

-----------------------------Solution composition------------------------------

	Elements           Molality       Moles

	F                 1.008e-01   1.008e-01
	Na                1.008e-01   1.008e-01

----------------------------Description of solution----------------------------

                                       pH  =   8.031      Charge balance
                                       pe  =  -1.307      Adjusted to redox equilibrium
      Specific Conductance (µS/cm,  25°C)  = 8668
                          Density (g/cm³)  =   1.00150
                               Volume (L)  =   1.00273
                        Viscosity (mPa s)  =   0.91396
                        Activity of water  =   0.997
                 Ionic strength (mol/kgw)  =   1.008e-01
                       Mass of water (kg)  =   1.000e+00
                 Total alkalinity (eq/kg)  =  -1.221e-12
                         Temperature (°C)  =  25.00
                  Electrical balance (eq)  =  -1.050e-10
 Percent error, 100*(Cat-|An|)/(Cat+|An|)  =  -0.00
                               Iterations  =  11
                                  Total H  = 1.110124e+02
                                  Total O  = 5.550622e+01

----------------------------Distribution of species----------------------------

                                               Log       Log       Log    mole V
   Species          Molality    Activity  Molality  Activity     Gamma   cm³/mol

   OH-             1.422e-06   1.082e-06    -5.847    -5.966    -0.119     -3.73
   H+              1.130e-08   9.319e-09    -7.947    -8.031    -0.084      0.00
   H2O             5.551e+01   9.966e-01     1.744    -0.001     0.000     18.07
F             1.008e-01
   F-              1.008e-01   7.503e-02    -0.996    -1.125    -0.128     -1.22
   NaF             2.362e-05   2.474e-05    -4.627    -4.607     0.020      4.35
   HF              1.024e-06   1.049e-06    -5.989    -5.979     0.010     12.50
   HF2-            3.866e-07   3.018e-07    -6.413    -6.520    -0.107     22.33
H(0)          4.933e-17
   H2              2.466e-17   2.527e-17   -16.608   -16.597     0.011     14.99
Na            1.008e-01
   Na+             1.008e-01   7.910e-02    -0.996    -1.102    -0.105     -1.09
   NaF             2.362e-05   2.474e-05    -4.627    -4.607     0.020      4.35
O(0)          0.000e+00
   O2              0.000e+00   0.000e+00   -59.181   -59.171     0.010     30.40

------------------------------Saturation indices-------------------------------

  Phase               SI** log IAP   log K(298 K,   1 atm)

  H2(g)           -13.50    -16.60   -3.10  H2
  H2O(g)           -1.50     -0.00    1.50  H2O
  O2(g)           -56.28    -59.17   -2.89  O2

**For a gas, SI = log10(fugacity). Fugacity = pressure * phi / 1 atm.
  For ideal gases, phi = 1.

Reaction step 12.

Using solution 1.	
Using temperature 1.	
Using pressure 1.	
Using reaction 1.	

Reaction 1.	

	  1.199e-01 moles of the following reaction have been added:

	                 Relative
	Reactant            moles

	NaF                  1.00000

	                 Relative
	Element             moles
	F                    1.00000
	Na                   1.00000

-----------------------------Solution composition------------------------------

	Elements           Molality       Moles

	F                 1.199e-01   1.199e-01
	Na                1.199e-01   1.199e-01

----------------------------Description of solution----------------------------

                                       pH  =   8.069      Charge balance
                                       pe  =  -1.251      Adjusted to redox equilibrium
      Specific Conductance (µS/cm,  25°C)  = 10176
                          Density (g/cm³)  =   1.00233
                               Volume (L)  =   1.00270
                        Viscosity (mPa s)  =   0.91802
                        Activity of water  =   0.996
                 Ionic strength (mol/kgw)  =   1.199e-01
                       Mass of water (kg)  =   1.000e+00
                 Total alkalinity (eq/kg)  =  -1.836e-14
                         Temperature (°C)  =  25.00
                  Electrical balance (eq)  =  -6.499e-12
 Percent error, 100*(Cat-|An|)/(Cat+|An|)  =  -0.00
                               Iterations  =   9
                                  Total H  = 1.110124e+02
                                  Total O  = 5.550622e+01

----------------------------Distribution of species----------------------------

                                               Log       Log       Log    mole V
   Species          Molality    Activity  Molality  Activity     Gamma   cm³/mol

   OH-             1.581e-06   1.182e-06    -5.801    -5.927    -0.126     -3.68
   H+              1.043e-08   8.528e-09    -7.982    -8.069    -0.087      0.00
   H2O             5.551e+01   9.959e-01     1.744    -0.002     0.000     18.07
F             1.199e-01
   F-              1.199e-01   8.729e-02    -0.921    -1.059    -0.138     -1.16
   NaF             3.199e-05   3.380e-05    -4.495    -4.471     0.024      4.35
   HF              1.086e-06   1.116e-06    -5.964    -5.952     0.012     12.50
   HF2-            4.848e-07   3.739e-07    -6.314    -6.427    -0.113     22.36
H(0)          3.170e-17
   H2              1.585e-17   1.632e-17   -16.800   -16.787     0.013     14.99
Na            1.199e-01
   Na+             1.199e-01   9.289e-02    -0.921    -1.032    -0.111     -1.05
   NaF             3.199e-05   3.380e-05    -4.495    -4.471     0.024      4.35
O(0)          0.000e+00
   O2              0.000e+00   0.000e+00   -58.803   -58.791     0.012     30.40

------------------------------Saturation indices-------------------------------

  Phase               SI** log IAP   log K(298 K,   1 atm)

  H2(g)           -13.69    -16.79   -3.10  H2
  H2O(g)           -1.50     -0.00    1.50  H2O
  O2(g)           -55.90    -58.79   -2.89  O2

**For a gas, SI = log10(fugacity). Fugacity = pressure * phi / 1 atm.
  For ideal gases, phi = 1.

Reaction step 13.

Using solution 1.	
Using temperature 1.	
Using pressure 1.	
Using reaction 1.	

Reaction 1.	

	  1.400e-01 moles of the following reaction have been added:

	                 Relative
	Reactant            moles

	NaF                  1.00000

	                 Relative
	Element             moles
	F                    1.00000
	Na                   1.00000

-----------------------------Solution composition------------------------------

	Elements           Molality       Moles

	F                 1.400e-01   1.400e-01
	Na                1.400e-01   1.400e-01

----------------------------Description of solution----------------------------

                                       pH  =   8.104      Charge balance
                                       pe  =  -1.349      Adjusted to redox equilibrium
      Specific Conductance (µS/cm,  25°C)  = 11737
                          Density (g/cm³)  =   1.00320
                               Volume (L)  =   1.00267
                        Viscosity (mPa s)  =   0.92225
                        Activity of water  =   0.995
                 Ionic strength (mol/kgw)  =   1.400e-01
                       Mass of water (kg)  =   1.000e+00
                 Total alkalinity (eq/kg)  =  -4.555e-14
                         Temperature (°C)  =  25.00
                  Electrical balance (eq)  =  -1.284e-11
 Percent error, 100*(Cat-|An|)/(Cat+|An|)  =  -0.00
                               Iterations  =   9
                                  Total H  = 1.110124e+02
                                  Total O  = 5.550622e+01

----------------------------Distribution of species----------------------------

                                               Log       Log       Log    mole V
   Species          Molality    Activity  Molality  Activity     Gamma   cm³/mol

   OH-             1.741e-06   1.280e-06    -5.759    -5.893    -0.133     -3.63
   H+              9.692e-09   7.867e-09    -8.014    -8.104    -0.091      0.00
   H2O             5.551e+01   9.952e-01     1.744    -0.002     0.000     18.07
F             1.400e-01
   F-              1.400e-01   9.980e-02    -0.854    -1.001    -0.147     -1.10
   NaF             4.184e-05   4.462e-05    -4.378    -4.350     0.028      4.35
   HF              1.140e-06   1.178e-06    -5.943    -5.929     0.014     12.50
   HF2-            5.909e-07   4.509e-07    -6.228    -6.346    -0.117     22.38
H(0)          4.225e-17
   H2              2.113e-17   2.185e-17   -16.675   -16.660     0.015     14.99
Na            1.400e-01
   Na+             1.400e-01   1.072e-01    -0.854    -0.970    -0.116     -1.02
   NaF             4.184e-05   4.462e-05    -4.378    -4.350     0.028      4.35
O(0)          0.000e+00
   O2              0.000e+00   0.000e+00   -59.060   -59.046     0.014     30.40

------------------------------Saturation indices-------------------------------

  Phase               SI** log IAP   log K(298 K,   1 atm)

  H2(g)           -13.56    -16.66   -3.10  H2
  H2O(g)           -1.50     -0.00    1.50  H2O
  O2(g)           -56.15    -59.05   -2.89  O2

**For a gas, SI = log10(fugacity). Fugacity = pressure * phi / 1 atm.
  For ideal gases, phi = 1.

Reaction step 14.

Using solution 1.	
Using temperature 1.	
Using pressure 1.	
Using reaction 1.	

Reaction 1.	

	  1.585e-01 moles of the following reaction have been added:

	                 Relative
	Reactant            moles

	NaF                  1.00000

	                 Relative
	Element             moles
	F                    1.00000
	Na                   1.00000

-----------------------------Solution composition------------------------------

	Elements           Molality       Moles

	F                 1.585e-01   1.585e-01
	Na                1.585e-01   1.585e-01

----------------------------Description of solution----------------------------

                                       pH  =   8.133      Charge balance
                                       pe  =  -1.435      Adjusted to redox equilibrium
      Specific Conductance (µS/cm,  25°C)  = 13150
                          Density (g/cm³)  =   1.00400
                               Volume (L)  =   1.00264
                        Viscosity (mPa s)  =   0.92612
                        Activity of water  =   0.995
                 Ionic strength (mol/kgw)  =   1.584e-01
                       Mass of water (kg)  =   1.000e+00
                 Total alkalinity (eq/kg)  =  -1.328e-12
                         Temperature (°C)  =  25.00
                  Electrical balance (eq)  =  -1.314e-10
 Percent error, 100*(Cat-|An|)/(Cat+|An|)  =  -0.00
                               Iterations  =   9
                                  Total H  = 1.110124e+02
                                  Total O  = 5.550622e+01

----------------------------Distribution of species----------------------------

                                               Log       Log       Log    mole V
   Species          Molality    Activity  Molality  Activity     Gamma   cm³/mol

   OH-             1.882e-06   1.366e-06    -5.725    -5.865    -0.139     -3.59
   H+              9.136e-09   7.370e-09    -8.039    -8.133    -0.093      0.00
   H2O             5.551e+01   9.946e-01     1.744    -0.002     0.000     18.07
F             1.585e-01
   F-              1.584e-01   1.110e-01    -0.800    -0.955    -0.154     -1.05
   NaF             5.176e-05   5.568e-05    -4.286    -4.254     0.032      4.35
   HF              1.183e-06   1.227e-06    -5.927    -5.911     0.016     12.50
   HF2-            6.902e-07   5.224e-07    -6.161    -6.282    -0.121     22.41
H(0)          5.495e-17
   H2              2.748e-17   2.855e-17   -16.561   -16.544     0.017     14.99
Na            1.585e-01
   Na+             1.584e-01   1.203e-01    -0.800    -0.920    -0.119     -0.99
   NaF             5.176e-05   5.568e-05    -4.286    -4.254     0.032      4.35
O(0)          0.000e+00
   O2              0.000e+00   0.000e+00   -59.294   -59.278     0.016     30.40

------------------------------Saturation indices-------------------------------

  Phase               SI** log IAP   log K(298 K,   1 atm)

  H2(g)           -13.45    -16.54   -3.10  H2
  H2O(g)           -1.51     -0.00    1.50  H2O
  O2(g)           -56.39    -59.28   -2.89  O2

**For a gas, SI = log10(fugacity). Fugacity = pressure * phi / 1 atm.
  For ideal gases, phi = 1.

Reaction step 15.

Using solution 1.	
Using temperature 1.	
Using pressure 1.	
Using reaction 1.	

Reaction 1.	

	  1.804e-01 moles of the following reaction have been added:

	                 Relative
	Reactant            moles

	NaF                  1.00000

	                 Relative
	Element             moles
	F                    1.00000
	Na                   1.00000

-----------------------------Solution composition------------------------------

	Elements           Molality       Moles

	F                 1.804e-01   1.804e-01
	Na                1.804e-01   1.804e-01

----------------------------Description of solution----------------------------

                                       pH  =   8.163      Charge balance
                                       pe  =  -1.507      Adjusted to redox equilibrium
      Specific Conductance (µS/cm,  25°C)  = 14804
                          Density (g/cm³)  =   1.00495
                               Volume (L)  =   1.00261
                        Viscosity (mPa s)  =   0.93070
                        Activity of water  =   0.994
                 Ionic strength (mol/kgw)  =   1.803e-01
                       Mass of water (kg)  =   1.000e+00
                 Total alkalinity (eq/kg)  =  -4.901e-12
                         Temperature (°C)  =  25.00
                  Electrical balance (eq)  =  -3.306e-10
 Percent error, 100*(Cat-|An|)/(Cat+|An|)  =  -0.00
                               Iterations  =  10
                                  Total H  = 1.110124e+02
                                  Total O  = 5.550622e+01

----------------------------Distribution of species----------------------------

                                               Log       Log       Log    mole V
   Species          Molality    Activity  Molality  Activity     Gamma   cm³/mol

   OH-             2.045e-06   1.463e-06    -5.689    -5.835    -0.146     -3.54
   H+              8.580e-09   6.878e-09    -8.066    -8.163    -0.096      0.00
   H2O             5.551e+01   9.939e-01     1.744    -0.003     0.000     18.07
F             1.804e-01
   F-              1.803e-01   1.239e-01    -0.744    -0.907    -0.163     -0.99
   NaF             6.456e-05   7.015e-05    -4.190    -4.154     0.036      4.35
   HF              1.226e-06   1.278e-06    -5.911    -5.893     0.018     12.50
   HF2-            8.096e-07   6.079e-07    -6.092    -6.216    -0.124     22.43
H(0)          6.629e-17
   H2              3.315e-17   3.462e-17   -16.480   -16.461     0.019     14.99
Na            1.804e-01
   Na+             1.803e-01   1.358e-01    -0.744    -0.867    -0.123     -0.96
   NaF             6.456e-05   7.015e-05    -4.190    -4.154     0.036      4.35
O(0)          0.000e+00
   O2              0.000e+00   0.000e+00   -59.465   -59.447     0.018     30.40

------------------------------Saturation indices-------------------------------

  Phase               SI** log IAP   log K(298 K,   1 atm)

  H2(g)           -13.36    -16.46   -3.10  H2
  H2O(g)           -1.51     -0.00    1.50  H2O
  O2(g)           -56.55    -59.45   -2.89  O2

**For a gas, SI = log10(fugacity). Fugacity = pressure * phi / 1 atm.
  For ideal gases, phi = 1.

Reaction step 16.

Using solution 1.	
Using temperature 1.	
Using pressure 1.	
Using reaction 1.	

Reaction 1.	

	  1.831e-01 moles of the following reaction have been added:

	                 Relative
	Reactant            moles

	NaF                  1.00000

	                 Relative
	Element             moles
	F                    1.00000
	Na                   1.00000

-----------------------------Solution composition------------------------------

	Elements           Molality       Moles

	F                 1.831e-01   1.831e-01
	Na                1.831e-01   1.831e-01

----------------------------Description of solution----------------------------

                                       pH  =   8.166      Charge balance
                                       pe  =  -1.381      Adjusted to redox equilibrium
      Specific Conductance (µS/cm,  25°C)  = 15007
                          Density (g/cm³)  =   1.00506
                               Volume (L)  =   1.00261
                        Viscosity (mPa s)  =   0.93127
                        Activity of water  =   0.994
                 Ionic strength (mol/kgw)  =   1.830e-01
                       Mass of water (kg)  =   1.000e+00
                 Total alkalinity (eq/kg)  =  -1.806e-12
                         Temperature (°C)  =  25.00
                  Electrical balance (eq)  =  -1.706e-10
 Percent error, 100*(Cat-|An|)/(Cat+|An|)  =  -0.00
                               Iterations  =  14
                                  Total H  = 1.110124e+02
                                  Total O  = 5.550622e+01

----------------------------Distribution of species----------------------------

                                               Log       Log       Log    mole V
   Species          Molality    Activity  Molality  Activity     Gamma   cm³/mol

   OH-             2.064e-06   1.474e-06    -5.685    -5.831    -0.146     -3.54
   H+              8.518e-09   6.824e-09    -8.070    -8.166    -0.096      0.00
   H2O             5.551e+01   9.938e-01     1.744    -0.003     0.000     18.07
F             1.831e-01
   F-              1.830e-01   1.255e-01    -0.737    -0.901    -0.164     -0.98
   NaF             6.621e-05   7.204e-05    -4.179    -4.142     0.037      4.35
   HF              1.231e-06   1.284e-06    -5.910    -5.891     0.018     12.50
   HF2-            8.245e-07   6.185e-07    -6.084    -6.209    -0.125     22.43
H(0)          3.645e-17
   H2              1.822e-17   1.905e-17   -16.739   -16.720     0.019     14.99
Na            1.831e-01
   Na+             1.830e-01   1.377e-01    -0.737    -0.861    -0.124     -0.96
   NaF             6.621e-05   7.204e-05    -4.179    -4.142     0.037      4.35
O(0)          0.000e+00
   O2              0.000e+00   0.000e+00   -58.946   -58.928     0.018     30.40

------------------------------Saturation indices-------------------------------

  Phase               SI** log IAP   log K(298 K,   1 atm)

  H2(g)           -13.62    -16.72   -3.10  H2
  H2O(g)           -1.51     -0.00    1.50  H2O
  O2(g)           -56.04    -58.93   -2.89  O2

**For a gas, SI = log10(fugacity). Fugacity = pressure * phi / 1 atm.
  For ideal gases, phi = 1.

Reaction step 17.

Using solution 1.	
Using temperature 1.	
Using pressure 1.	
Using reaction 1.	

Reaction 1.	

	  2.012e-01 moles of the following reaction have been added:

	                 Relative
	Reactant            moles

	NaF                  1.00000

	                 Relative
	Element             moles
	F                    1.00000
	Na                   1.00000

-----------------------------Solution composition------------------------------

	Elements           Molality       Moles

	F                 2.012e-01   2.012e-01
	Na                2.012e-01   2.012e-01

----------------------------Description of solution----------------------------

                                       pH  =   8.188      Charge balance
                                       pe  =  -1.399      Adjusted to redox equilibrium
      Specific Conductance (µS/cm,  25°C)  = 16352
                          Density (g/cm³)  =   1.00584
                               Volume (L)  =   1.00259
                        Viscosity (mPa s)  =   0.93504
                        Activity of water  =   0.993
                 Ionic strength (mol/kgw)  =   2.011e-01
                       Mass of water (kg)  =   1.000e+00
                 Total alkalinity (eq/kg)  =  -2.498e-11
                         Temperature (°C)  =  25.00
                  Electrical balance (eq)  =  -1.021e-09
 Percent error, 100*(Cat-|An|)/(Cat+|An|)  =  -0.00
                               Iterations  =  16
                                  Total H  = 1.110124e+02
                                  Total O  = 5.550622e+01

----------------------------Distribution of species----------------------------

                                               Log       Log       Log    mole V
   Species          Molality    Activity  Molality  Activity     Gamma   cm³/mol

   OH-             2.194e-06   1.550e-06    -5.659    -5.810    -0.151     -3.50
   H+              8.134e-09   6.486e-09    -8.090    -8.188    -0.098      0.00
   H2O             5.551e+01   9.932e-01     1.744    -0.003     0.000     18.07
F             2.012e-01
   F-              2.011e-01   1.359e-01    -0.697    -0.867    -0.170     -0.93
   NaF             7.765e-05   8.518e-05    -4.110    -4.070     0.040      4.35
   HF              1.262e-06   1.322e-06    -5.899    -5.879     0.020     12.50
   HF2-            9.238e-07   6.893e-07    -6.034    -6.162    -0.127     22.45
H(0)          3.571e-17
   H2              1.786e-17   1.875e-17   -16.748   -16.727     0.021     14.99
Na            2.012e-01
   Na+             2.011e-01   1.503e-01    -0.697    -0.823    -0.126     -0.93
   NaF             7.765e-05   8.518e-05    -4.110    -4.070     0.040      4.35
O(0)          0.000e+00
   O2              0.000e+00   0.000e+00   -58.934   -58.914     0.020     30.40

------------------------------Saturation indices-------------------------------

  Phase               SI** log IAP   log K(298 K,   1 atm)

  H2(g)           -13.63    -16.73   -3.10  H2
  H2O(g)           -1.51     -0.00    1.50  H2O
  O2(g)           -56.02    -58.91   -2.89  O2

**For a gas, SI = log10(fugacity). Fugacity = pressure * phi / 1 atm.
  For ideal gases, phi = 1.

Reaction step 18.

Using solution 1.	
Using temperature 1.	
Using pressure 1.	
Using reaction 1.	

Reaction 1.	

	  2.066e-01 moles of the following reaction have been added:

	                 Relative
	Reactant            moles

	NaF                  1.00000

	                 Relative
	Element             moles
	F                    1.00000
	Na                   1.00000

-----------------------------Solution composition------------------------------

	Elements           Molality       Moles

	F                 2.066e-01   2.066e-01
	Na                2.066e-01   2.066e-01

----------------------------Description of solution----------------------------

                                       pH  =   8.194      Charge balance
                                       pe  =  -1.468      Adjusted to redox equilibrium
      Specific Conductance (µS/cm,  25°C)  = 16748
                          Density (g/cm³)  =   1.00607
                               Volume (L)  =   1.00259
                        Viscosity (mPa s)  =   0.93616
                        Activity of water  =   0.993
                 Ionic strength (mol/kgw)  =   2.065e-01
                       Mass of water (kg)  =   1.000e+00
                 Total alkalinity (eq/kg)  =  -6.582e-11
                         Temperature (°C)  =  25.00
                  Electrical balance (eq)  =  -1.964e-09
 Percent error, 100*(Cat-|An|)/(Cat+|An|)  =  -0.00
                               Iterations  =  11
                                  Total H  = 1.110124e+02
                                  Total O  = 5.550622e+01

----------------------------Distribution of species----------------------------

                                               Log       Log       Log    mole V
   Species          Molality    Activity  Molality  Activity     Gamma   cm³/mol

   OH-             2.232e-06   1.572e-06    -5.651    -5.804    -0.152     -3.48
   H+              8.029e-09   6.394e-09    -8.095    -8.194    -0.099      0.00
   H2O             5.551e+01   9.930e-01     1.744    -0.003     0.000     18.07
F             2.066e-01
   F-              2.065e-01   1.389e-01    -0.685    -0.857    -0.172     -0.92
   NaF             8.116e-05   8.926e-05    -4.091    -4.049     0.041      4.35
   HF              1.271e-06   1.332e-06    -5.896    -5.875     0.021     12.50
   HF2-            9.533e-07   7.103e-07    -6.021    -6.149    -0.128     22.46
H(0)          4.744e-17
   H2              2.372e-17   2.494e-17   -16.625   -16.603     0.022     14.99
Na            2.066e-01
   Na+             2.065e-01   1.541e-01    -0.685    -0.812    -0.127     -0.92
   NaF             8.116e-05   8.926e-05    -4.091    -4.049     0.041      4.35
O(0)          0.000e+00
   O2              0.000e+00   0.000e+00   -59.183   -59.162     0.021     30.40

------------------------------Saturation indices-------------------------------

  Phase               SI** log IAP   log K(298 K,   1 atm)

  H2(g)           -13.50    -16.60   -3.10  H2
  H2O(g)           -1.51     -0.00    1.50  H2O
  O2(g)           -56.27    -59.16   -2.89  O2

**For a gas, SI = log10(fugacity). Fugacity = pressure * phi / 1 atm.
  For ideal gases, phi = 1.

Reaction step 19.

Using solution 1.	
Using temperature 1.	
Using pressure 1.	
Using reaction 1.	

Reaction 1.	

	  2.201e-01 moles of the following reaction have been added:

	                 Relative
	Reactant            moles

	NaF                  1.00000

	                 Relative
	Element             moles
	F                    1.00000
	Na                   1.00000

-----------------------------Solution composition------------------------------

	Elements           Molality       Moles

	F                 2.201e-01   2.201e-01
	Na                2.201e-01   2.201e-01

----------------------------Description of solution----------------------------

                                       pH  =   8.209      Charge balance
                                       pe  =  -1.437      Adjusted to redox equilibrium
      Specific Conductance (µS/cm,  25°C)  = 17739
                          Density (g/cm³)  =   1.00665
                               Volume (L)  =   1.00257
                        Viscosity (mPa s)  =   0.93897
                        Activity of water  =   0.993
                 Ionic strength (mol/kgw)  =   2.200e-01
                       Mass of water (kg)  =   1.000e+00
                 Total alkalinity (eq/kg)  =  -5.522e-13
                         Temperature (°C)  =  25.00
                  Electrical balance (eq)  =  -8.258e-11
 Percent error, 100*(Cat-|An|)/(Cat+|An|)  =  -0.00
                               Iterations  =  16
                                  Total H  = 1.110124e+02
                                  Total O  = 5.550622e+01

----------------------------Distribution of species----------------------------

                                               Log       Log       Log    mole V
   Species          Molality    Activity  Molality  Activity     Gamma   cm³/mol

   OH-             2.326e-06   1.626e-06    -5.633    -5.789    -0.155     -3.46
   H+              7.782e-09   6.178e-09    -8.109    -8.209    -0.100      0.00
   H2O             5.551e+01   9.925e-01     1.744    -0.003     0.000     18.07
F             2.201e-01
   F-              2.200e-01   1.465e-01    -0.658    -0.834    -0.177     -0.88
   NaF             9.027e-05   9.989e-05    -4.044    -4.000     0.044      4.35
   HF              1.290e-06   1.358e-06    -5.889    -5.867     0.022     12.50
   HF2-            1.028e-06   7.632e-07    -5.988    -6.117    -0.129     22.47
H(0)          3.834e-17
   H2              1.917e-17   2.022e-17   -16.717   -16.694     0.023     14.99
Na            2.201e-01
   Na+             2.200e-01   1.635e-01    -0.658    -0.786    -0.129     -0.91
   NaF             9.027e-05   9.989e-05    -4.044    -4.000     0.044      4.35
O(0)          0.000e+00
   O2              0.000e+00   0.000e+00   -59.003   -58.981     0.022     30.40

------------------------------Saturation indices-------------------------------

  Phase               SI** log IAP   log K(298 K,   1 atm)

  H2(g)           -13.59    -16.69   -3.10  H2
  H2O(g)           -1.51     -0.00    1.50  H2O
  O2(g)           -56.09    -58.98   -2.89  O2

**For a gas, SI = log10(fugacity). Fugacity = pressure * phi / 1 atm.
  For ideal gases, phi = 1.

Reaction step 20.

Using solution 1.	
Using temperature 1.	
Using pressure 1.	
Using reaction 1.	

Reaction 1.	

	  2.313e-01 moles of the following reaction have been added:

	                 Relative
	Reactant            moles

	NaF                  1.00000

	                 Relative
	Element             moles
	F                    1.00000
	Na                   1.00000

-----------------------------Solution composition------------------------------

	Elements           Molality       Moles

	F                 2.313e-01   2.313e-01
	Na                2.313e-01   2.313e-01

----------------------------Description of solution----------------------------

                                       pH  =   8.221      Charge balance
                                       pe  =  -1.500      Adjusted to redox equilibrium
      Specific Conductance (µS/cm,  25°C)  = 18550
                          Density (g/cm³)  =   1.00713
                               Volume (L)  =   1.00256
                        Viscosity (mPa s)  =   0.94129
                        Activity of water  =   0.992
                 Ionic strength (mol/kgw)  =   2.312e-01
                       Mass of water (kg)  =   1.000e+00
                 Total alkalinity (eq/kg)  =   4.550e-17
                         Temperature (°C)  =  25.00
                  Electrical balance (eq)  =  -4.053e-15
 Percent error, 100*(Cat-|An|)/(Cat+|An|)  =  -0.00
                               Iterations  =  10
                                  Total H  = 1.110124e+02
                                  Total O  = 5.550622e+01

----------------------------Distribution of species----------------------------

                                               Log       Log       Log    mole V
   Species          Molality    Activity  Molality  Activity     Gamma   cm³/mol

   OH-             2.402e-06   1.670e-06    -5.619    -5.777    -0.158     -3.43
   H+              7.593e-09   6.014e-09    -8.120    -8.221    -0.101      0.00
   H2O             5.551e+01   9.921e-01     1.744    -0.003     0.000     18.07
F             2.313e-01
   F-              2.312e-01   1.527e-01    -0.636    -0.816    -0.180     -0.85
   NaF             9.803e-05   1.090e-04    -4.009    -3.962     0.046      4.35
   HF              1.306e-06   1.377e-06    -5.884    -5.861     0.023     12.50
   HF2-            1.089e-06   8.068e-07    -5.963    -6.093    -0.130     22.48
H(0)          4.841e-17
   H2              2.421e-17   2.560e-17   -16.616   -16.592     0.024     14.99
Na            2.313e-01
   Na+             2.312e-01   1.713e-01    -0.636    -0.766    -0.130     -0.89
   NaF             9.803e-05   1.090e-04    -4.009    -3.962     0.046      4.35
O(0)          0.000e+00
   O2              0.000e+00   0.000e+00   -59.209   -59.186     0.023     30.40

------------------------------Saturation indices-------------------------------

  Phase               SI** log IAP   log K(298 K,   1 atm)

  H2(g)           -13.49    -16.59   -3.10  H2
  H2O(g)           -1.51     -0.00    1.50  H2O
  O2(g)           -56.29    -59.19   -2.89  O2

**For a gas, SI = log10(fugacity). Fugacity = pressure * phi / 1 atm.
  For ideal gases, phi = 1.

Reaction step 21.

Using solution 1.	
Using temperature 1.	
Using pressure 1.	
Using reaction 1.	

Reaction 1.	

	  2.685e-01 moles of the following reaction have been added:

	                 Relative
	Reactant            moles

	NaF                  1.00000

	                 Relative
	Element             moles
	F                    1.00000
	Na                   1.00000

-----------------------------Solution composition------------------------------

	Elements           Molality       Moles

	F                 2.685e-01   2.685e-01
	Na                2.685e-01   2.685e-01

----------------------------Description of solution----------------------------

                                       pH  =   8.256      Charge balance
                                       pe  =  -1.934      Adjusted to redox equilibrium
      Specific Conductance (µS/cm,  25°C)  = 21213
                          Density (g/cm³)  =   1.00871
                               Volume (L)  =   1.00254
                        Viscosity (mPa s)  =   0.94903
                        Activity of water  =   0.991
                 Ionic strength (mol/kgw)  =   2.683e-01
                       Mass of water (kg)  =   1.000e+00
                 Total alkalinity (eq/kg)  =  -6.897e-16
                         Temperature (°C)  =  25.00
                  Electrical balance (eq)  =  -8.410e-13
 Percent error, 100*(Cat-|An|)/(Cat+|An|)  =  -0.00
                               Iterations  =  26
                                  Total H  = 1.110124e+02
                                  Total O  = 5.550622e+01

----------------------------Distribution of species----------------------------

                                               Log       Log       Log    mole V
   Species          Molality    Activity  Molality  Activity     Gamma   cm³/mol

   OH-             2.649e-06   1.809e-06    -5.577    -5.742    -0.166     -3.36
   H+              7.049e-09   5.543e-09    -8.152    -8.256    -0.104      0.00
   H2O             5.551e+01   9.909e-01     1.744    -0.004     0.000     18.07
F             2.685e-01
   F-              2.683e-01   1.727e-01    -0.571    -0.763    -0.191     -0.76
   NaF             1.254e-04   1.419e-04    -3.902    -3.848     0.054      4.35
   HF              1.350e-06   1.436e-06    -5.870    -5.843     0.027     12.50
   HF2-            1.292e-06   9.514e-07    -5.889    -6.022    -0.133     22.52
H(0)          3.015e-16
   H2              1.508e-16   1.609e-16   -15.822   -15.794     0.028     14.99
Na            2.685e-01
   Na+             2.683e-01   1.971e-01    -0.571    -0.705    -0.134     -0.85
   NaF             1.254e-04   1.419e-04    -3.902    -3.848     0.054      4.35
O(0)          0.000e+00
   O2              0.000e+00   0.000e+00   -60.810   -60.784     0.027     30.40

------------------------------Saturation indices-------------------------------

  Phase               SI** log IAP   log K(298 K,   1 atm)

  H2(g)           -12.69    -15.79   -3.10  H2
  H2O(g)           -1.51     -0.00    1.50  H2O
  O2(g)           -57.89    -60.78   -2.89  O2

**For a gas, SI = log10(fugacity). Fugacity = pressure * phi / 1 atm.
  For ideal gases, phi = 1.

Reaction step 22.

Using solution 1.	
Using temperature 1.	
Using pressure 1.	
Using reaction 1.	

Reaction 1.	

	  2.932e-01 moles of the following reaction have been added:

	                 Relative
	Reactant            moles

	NaF                  1.00000

	                 Relative
	Element             moles
	F                    1.00000
	Na                   1.00000

-----------------------------Solution composition------------------------------

	Elements           Molality       Moles

	F                 2.932e-01   2.932e-01
	Na                2.932e-01   2.932e-01

----------------------------Description of solution----------------------------

                                       pH  =   8.277      Charge balance
                                       pe  =  -1.988      Adjusted to redox equilibrium
      Specific Conductance (µS/cm,  25°C)  = 22949
                          Density (g/cm³)  =   1.00976
                               Volume (L)  =   1.00252
                        Viscosity (mPa s)  =   0.95419
                        Activity of water  =   0.990
                 Ionic strength (mol/kgw)  =   2.930e-01
                       Mass of water (kg)  =   1.000e+00
                 Total alkalinity (eq/kg)  =  -2.911e-16
                         Temperature (°C)  =  25.00
                  Electrical balance (eq)  =  -4.393e-13
 Percent error, 100*(Cat-|An|)/(Cat+|An|)  =  -0.00
                               Iterations  =  10
                                  Total H  = 1.110124e+02
                                  Total O  = 5.550622e+01

----------------------------Distribution of species----------------------------

                                               Log       Log       Log    mole V
   Species          Molality    Activity  Molality  Activity     Gamma   cm³/mol

   OH-             2.807e-06   1.897e-06    -5.552    -5.722    -0.170     -3.31
   H+              6.745e-09   5.282e-09    -8.171    -8.277    -0.106      0.00
   H2O             5.551e+01   9.900e-01     1.744    -0.004     0.000     18.07
F             2.932e-01
   F-              2.930e-01   1.856e-01    -0.533    -0.731    -0.198     -0.69
   NaF             1.448e-04   1.658e-04    -3.839    -3.780     0.059      4.35
   HF2-            1.426e-06   1.047e-06    -5.846    -5.980    -0.134     22.54
   HF              1.374e-06   1.470e-06    -5.862    -5.833     0.029     12.50
H(0)          3.483e-16
   H2              1.742e-16   1.869e-16   -15.759   -15.728     0.031     14.99
Na            2.932e-01
   Na+             2.930e-01   2.142e-01    -0.533    -0.669    -0.136     -0.82
   NaF             1.448e-04   1.658e-04    -3.839    -3.780     0.059      4.35
O(0)          0.000e+00
   O2              0.000e+00   0.000e+00   -60.944   -60.915     0.029     30.40

------------------------------Saturation indices-------------------------------

  Phase               SI** log IAP   log K(298 K,   1 atm)

  H2(g)           -12.63    -15.73   -3.10  H2
  H2O(g)           -1.51     -0.00    1.50  H2O
  O2(g)           -58.02    -60.91   -2.89  O2

**For a gas, SI = log10(fugacity). Fugacity = pressure * phi / 1 atm.
  For ideal gases, phi = 1.

Reaction step 23.

Using solution 1.	
Using temperature 1.	
Using pressure 1.	
Using reaction 1.	

Reaction 1.	

	  2.963e-01 moles of the following reaction have been added:

	                 Relative
	Reactant            moles

	NaF                  1.00000

	                 Relative
	Element             moles
	F                    1.00000
	Na                   1.00000

-----------------------------Solution composition------------------------------

	Elements           Molality       Moles

	F                 2.963e-01   2.963e-01
	Na                2.963e-01   2.963e-01

----------------------------Description of solution----------------------------

                                       pH  =   8.280      Charge balance
                                       pe  =  -1.451      Adjusted to redox equilibrium
      Specific Conductance (µS/cm,  25°C)  = 23171
                          Density (g/cm³)  =   1.00990
                               Volume (L)  =   1.00252
                        Viscosity (mPa s)  =   0.95485
                        Activity of water  =   0.990
                 Ionic strength (mol/kgw)  =   2.962e-01
                       Mass of water (kg)  =   1.000e+00
                 Total alkalinity (eq/kg)  =  -1.490e-12
                         Temperature (°C)  =  25.00
                  Electrical balance (eq)  =  -1.799e-10
 Percent error, 100*(Cat-|An|)/(Cat+|An|)  =  -0.00
                               Iterations  =  35
                                  Total H  = 1.110124e+02
                                  Total O  = 5.550622e+01

----------------------------Distribution of species----------------------------

                                               Log       Log       Log    mole V
   Species          Molality    Activity  Molality  Activity     Gamma   cm³/mol

   OH-             2.827e-06   1.908e-06    -5.549    -5.719    -0.171     -3.30
   H+              6.708e-09   5.251e-09    -8.173    -8.280    -0.106      0.00
   H2O             5.551e+01   9.899e-01     1.744    -0.004     0.000     18.07
F             2.963e-01
   F-              2.962e-01   1.872e-01    -0.528    -0.728    -0.199     -0.68
   NaF             1.474e-04   1.690e-04    -3.831    -3.772     0.059      4.35
   HF2-            1.444e-06   1.059e-06    -5.841    -5.975    -0.134     22.54
   HF              1.377e-06   1.474e-06    -5.861    -5.831     0.030     12.50
H(0)          2.901e-17
   H2              1.451e-17   1.558e-17   -16.838   -16.807     0.031     14.99
Na            2.963e-01
   Na+             2.962e-01   2.165e-01    -0.528    -0.665    -0.136     -0.82
   NaF             1.474e-04   1.690e-04    -3.831    -3.772     0.059      4.35
O(0)          0.000e+00
   O2              0.000e+00   0.000e+00   -58.786   -58.757     0.030     30.40

------------------------------Saturation indices-------------------------------

  Phase               SI** log IAP   log K(298 K,   1 atm)

  H2(g)           -13.71    -16.81   -3.10  H2
  H2O(g)           -1.51     -0.00    1.50  H2O
  O2(g)           -55.86    -58.76   -2.89  O2

**For a gas, SI = log10(fugacity). Fugacity = pressure * phi / 1 atm.
  For ideal gases, phi = 1.

Reaction step 24.

Using solution 1.	
Using temperature 1.	
Using pressure 1.	
Using reaction 1.	

Reaction 1.	

	  3.003e-01 moles of the following reaction have been added:

	                 Relative
	Reactant            moles

	NaF                  1.00000

	                 Relative
	Element             moles
	F                    1.00000
	Na                   1.00000

-----------------------------Solution composition------------------------------

	Elements           Molality       Moles

	F                 3.003e-01   3.003e-01
	Na                3.003e-01   3.003e-01

----------------------------Description of solution----------------------------

                                       pH  =   8.283      Charge balance
                                       pe  =  -1.335      Adjusted to redox equilibrium
      Specific Conductance (µS/cm,  25°C)  = 23448
                          Density (g/cm³)  =   1.01006
                               Volume (L)  =   1.00252
                        Viscosity (mPa s)  =   0.95569
                        Activity of water  =   0.990
                 Ionic strength (mol/kgw)  =   3.002e-01
                       Mass of water (kg)  =   1.000e+00
                 Total alkalinity (eq/kg)  =  -5.139e-16
                         Temperature (°C)  =  25.00
                  Electrical balance (eq)  =  -6.337e-13
 Percent error, 100*(Cat-|An|)/(Cat+|An|)  =  -0.00
                               Iterations  =  10
                                  Total H  = 1.110124e+02
                                  Total O  = 5.550622e+01

[...]

Reaction step 7.

Using solution 1.	
Using temperature 1.	
Using pressure 1.	
Using reaction 1.	

Reaction 1.	

	  5.058e-02 moles of the following reaction have been added:

	                 Relative
	Reactant            moles

	NaF                  1.00000

	                 Relative
	Element             moles
	F                    1.00000
	Na                   1.00000

-----------------------------Solution composition------------------------------

	Elements           Molality       Moles

	F                 5.058e-02   5.058e-02
	Na                5.058e-02   5.058e-02

----------------------------Description of solution----------------------------

                                       pH  =   7.494      Charge balance
                                       pe  =   2.807      Adjusted to redox equilibrium
      Specific Conductance (µS/cm, 300°C)  = 21253
                          Density (g/cm³)  =   0.75533
                               Volume (L)  =   1.32674
                        Viscosity (mPa s)  =   0.09660 (solute contributions limited to 200 °C)
                        Activity of water  =   0.998
                 Ionic strength (mol/kgw)  =   4.388e-02
                       Mass of water (kg)  =   1.000e+00
                 Total alkalinity (eq/kg)  =  -1.756e-12
                         Temperature (°C)  = 299.55
                           Pressure (atm)  = 299.06
                  Electrical balance (eq)  =   1.390e-12
 Percent error, 100*(Cat-|An|)/(Cat+|An|)  =   0.00
                               Iterations  =   7
                                  Total H  = 1.110124e+02
                                  Total O  = 5.550622e+01

----------------------------Distribution of species----------------------------

                                               Log       Log       Log    mole V
   Species          Molality    Activity  Molality  Activity     Gamma   cm³/mol

   OH-             4.055e-04   2.654e-04    -3.392    -3.576    -0.184   -107.54
   H+              4.392e-08   3.208e-08    -7.357    -7.494    -0.136      0.00
   H2O             5.551e+01   9.984e-01     1.744    -0.001     0.000     23.98
F             5.058e-02
   F-              4.348e-02   2.818e-02    -1.362    -1.550    -0.188    -95.80
   NaF             6.695e-03   6.832e-03    -2.174    -2.165     0.009     11.55
   HF              4.020e-04   4.061e-04    -3.396    -3.391     0.004     15.09
   HF2-            3.458e-06   2.280e-06    -5.461    -5.642    -0.181    -43.84
H(0)          6.489e-25
   H2              3.245e-25   3.279e-25   -24.489   -24.484     0.005     41.58
Na            5.058e-02
   Na+             4.388e-02   2.940e-02    -1.358    -1.532    -0.174      1.84
   NaF             6.695e-03   6.832e-03    -2.174    -2.165     0.009     11.55
O(0)          1.447e-10
   O2              7.237e-11   7.310e-11   -10.140   -10.136     0.004     56.48

------------------------------Saturation indices-------------------------------

  Phase               SI** log IAP   log K(572 K, 299 atm)

  H2(g)           -22.13    -24.48   -2.35  H2
  H2O(g)            1.87     -0.00   -1.87  H2O
  O2(g)            -7.61    -10.14   -2.52  O2

**For a gas, SI = log10(fugacity). Fugacity = pressure * phi / 1 atm.
  For ideal gases, phi = 1.

Reaction step 8.

Using solution 1.	
Using temperature 1.	
Using pressure 1.	
Using reaction 1.	

Reaction 1.	

	  5.058e-02 moles of the following reaction have been added:

	                 Relative
	Reactant            moles

	NaF                  1.00000

	                 Relative
	Element             moles
	F                    1.00000
	Na                   1.00000

-----------------------------Solution composition------------------------------

	Elements           Molality       Moles

	F                 5.058e-02   5.058e-02
	Na                5.058e-02   5.058e-02

----------------------------Description of solution----------------------------

                                       pH  =   7.494      Charge balance
                                       pe  =   2.807      Adjusted to redox equilibrium
      Specific Conductance (µS/cm, 300°C)  = 21253
                          Density (g/cm³)  =   0.75533
                               Volume (L)  =   1.32674
                        Viscosity (mPa s)  =   0.09660 (solute contributions limited to 200 °C)
                        Activity of water  =   0.998
                 Ionic strength (mol/kgw)  =   4.388e-02
                       Mass of water (kg)  =   1.000e+00
                 Total alkalinity (eq/kg)  =  -1.756e-12
                         Temperature (°C)  = 299.55
                           Pressure (atm)  = 299.06
                  Electrical balance (eq)  =   1.390e-12
 Percent error, 100*(Cat-|An|)/(Cat+|An|)  =   0.00
                               Iterations  =   7
                                  Total H  = 1.110124e+02
                                  Total O  = 5.550622e+01

----------------------------Distribution of species----------------------------

                                               Log       Log       Log    mole V
   Species          Molality    Activity  Molality  Activity     Gamma   cm³/mol

   OH-             4.055e-04   2.654e-04    -3.392    -3.576    -0.184   -107.54
   H+              4.392e-08   3.208e-08    -7.357    -7.494    -0.136      0.00
   H2O             5.551e+01   9.984e-01     1.744    -0.001     0.000     23.98
F             5.058e-02
   F-              4.348e-02   2.818e-02    -1.362    -1.550    -0.188    -95.80
   NaF             6.695e-03   6.832e-03    -2.174    -2.165     0.009     11.55
   HF              4.020e-04   4.061e-04    -3.396    -3.391     0.004     15.09
   HF2-            3.458e-06   2.280e-06    -5.461    -5.642    -0.181    -43.84
H(0)          6.489e-25
   H2              3.245e-25   3.279e-25   -24.489   -24.484     0.005     41.58
Na            5.058e-02
   Na+             4.388e-02   2.940e-02    -1.358    -1.532    -0.174      1.84
   NaF             6.695e-03   6.832e-03    -2.174    -2.165     0.009     11.55
O(0)          1.447e-10
   O2              7.237e-11   7.310e-11   -10.140   -10.136     0.004     56.48

------------------------------Saturation indices-------------------------------

  Phase               SI** log IAP   log K(572 K, 299 atm)

  H2(g)           -22.13    -24.48   -2.35  H2
  H2O(g)            1.87     -0.00   -1.87  H2O
  O2(g)            -7.61    -10.14   -2.52  O2

**For a gas, SI = log10(fugacity). Fugacity = pressure * phi / 1 atm.
  For ideal gases, phi = 1.

Reaction step 9.

Using solution 1.	
Using temperature 1.	
Using pressure 1.	
Using reaction 1.	

Reaction 1.	

	  2.461e-01 moles of the following reaction have been added:

	                 Relative
	Reactant            moles

	NaF                  1.00000

	                 Relative
	Element             moles
	F                    1.00000
	Na                   1.00000

-----------------------------Solution composition------------------------------

	Elements           Molality       Moles

	F                 2.461e-01   2.461e-01
	Na                2.461e-01   2.461e-01

----------------------------Description of solution----------------------------

                                       pH  =   7.690      Charge balance
                                       pe  =   2.725      Adjusted to redox equilibrium
      Specific Conductance (µS/cm, 300°C)  = 76309
                          Density (g/cm³)  =   0.76793
                               Volume (L)  =   1.31566
                        Viscosity (mPa s)  =   0.10538 (solute contributions limited to 200 °C)
                        Activity of water  =   0.993
                 Ionic strength (mol/kgw)  =   1.805e-01
                       Mass of water (kg)  =   1.000e+00
                 Total alkalinity (eq/kg)  =   2.706e-11
                         Temperature (°C)  = 299.55
                           Pressure (atm)  = 299.06
                  Electrical balance (eq)  =  -2.664e-10
 Percent error, 100*(Cat-|An|)/(Cat+|An|)  =  -0.00
                               Iterations  =   6
                                  Total H  = 1.110124e+02
                                  Total O  = 5.550622e+01

----------------------------Distribution of species----------------------------

                                               Log       Log       Log    mole V
   Species          Molality    Activity  Molality  Activity     Gamma   cm³/mol

   OH-             7.988e-04   3.968e-04    -3.098    -3.401    -0.304   -100.64
   H+              3.184e-08   2.043e-08    -7.497    -7.690    -0.193      0.00
   H2O             5.551e+01   9.927e-01     1.744    -0.003     0.000     23.97
F             2.461e-01
   F-              1.797e-01   8.577e-02    -0.745    -1.067    -0.321    -92.03
   NaF             6.558e-02   7.126e-02    -1.183    -1.147     0.036     11.55
   HF              7.732e-04   8.061e-04    -3.112    -3.094     0.018     15.09
   HF2-            2.550e-05   1.352e-05    -4.593    -4.869    -0.276    -37.09
H(0)          3.721e-25
   H2              1.861e-25   1.944e-25   -24.730   -24.711     0.019     41.58
Na            2.461e-01
   Na+             1.805e-01   9.658e-02    -0.743    -1.015    -0.272      4.76
   NaF             6.558e-02   7.126e-02    -1.183    -1.147     0.036     11.55
O(0)          3.947e-10
   O2              1.973e-10   2.057e-10    -9.705    -9.687     0.018     56.48

------------------------------Saturation indices-------------------------------

  Phase               SI** log IAP   log K(572 K, 299 atm)

  H2(g)           -22.36    -24.71   -2.35  H2
  H2O(g)            1.87     -0.00   -1.87  H2O
  O2(g)            -7.16     -9.69   -2.52  O2

**For a gas, SI = log10(fugacity). Fugacity = pressure * phi / 1 atm.
  For ideal gases, phi = 1.

Reaction step 10.

Majer, AAD 3.694 cm3/mol 
Using solution 1.	
Using temperature 1.	
Using pressure 1.	
Using reaction 1.	

Reaction 1.	

	  2.461e-01 moles of the following reaction have been added:

	                 Relative
	Reactant            moles

	NaF                  1.00000

	                 Relative
	Element             moles
	F                    1.00000
	Na                   1.00000

-----------------------------Solution composition------------------------------

	Elements           Molality       Moles

	F                 2.461e-01   2.461e-01
	Na                2.461e-01   2.461e-01

----------------------------Description of solution----------------------------

                                       pH  =   7.690      Charge balance
                                       pe  =   2.725      Adjusted to redox equilibrium
      Specific Conductance (µS/cm, 300°C)  = 76309
                          Density (g/cm³)  =   0.76793
                               Volume (L)  =   1.31566
                        Viscosity (mPa s)  =   0.10538 (solute contributions limited to 200 °C)
                        Activity of water  =   0.993
                 Ionic strength (mol/kgw)  =   1.805e-01
                       Mass of water (kg)  =   1.000e+00
                 Total alkalinity (eq/kg)  =   2.706e-11
                         Temperature (°C)  = 299.55
                           Pressure (atm)  = 299.06
                  Electrical balance (eq)  =  -2.664e-10
 Percent error, 100*(Cat-|An|)/(Cat+|An|)  =  -0.00
                               Iterations  =   6
                                  Total H  = 1.110124e+02
                                  Total O  = 5.550622e+01

----------------------------Distribution of species----------------------------

                                               Log       Log       Log    mole V
   Species          Molality    Activity  Molality  Activity     Gamma   cm³/mol

   OH-             7.988e-04   3.968e-04    -3.098    -3.401    -0.304   -100.64
   H+              3.184e-08   2.043e-08    -7.497    -7.690    -0.193      0.00
   H2O             5.551e+01   9.927e-01     1.744    -0.003     0.000     23.97
F             2.461e-01
   F-              1.797e-01   8.577e-02    -0.745    -1.067    -0.321    -92.03
   NaF             6.558e-02   7.126e-02    -1.183    -1.147     0.036     11.55
   HF              7.732e-04   8.061e-04    -3.112    -3.094     0.018     15.09
   HF2-            2.550e-05   1.352e-05    -4.593    -4.869    -0.276    -37.09
H(0)          3.721e-25
   H2              1.861e-25   1.944e-25   -24.730   -24.711     0.019     41.58
Na            2.461e-01
   Na+             1.805e-01   9.658e-02    -0.743    -1.015    -0.272      4.76
   NaF             6.558e-02   7.126e-02    -1.183    -1.147     0.036     11.55
O(0)          3.947e-10
   O2              1.973e-10   2.057e-10    -9.705    -9.687     0.018     56.48

------------------------------Saturation indices-------------------------------

  Phase               SI** log IAP   log K(572 K, 299 atm)

  H2(g)           -22.36    -24.71   -2.35  H2
  H2O(g)            1.87     -0.00   -1.87  H2O
  O2(g)            -7.16     -9.69   -2.52  O2

**For a gas, SI = log10(fugacity). Fugacity = pressure * phi / 1 atm.
  For ideal gases, phi = 1.

Reaction step 11.

Using solution 1.	
Using temperature 1.	
Using pressure 1.	
Using reaction 1.	

Reaction 1.	

	  4.988e-01 moles of the following reaction have been added:

	                 Relative
	Reactant            moles

	NaF                  1.00000

	                 Relative
	Element             moles
	F                    1.00000
	Na                   1.00000

-----------------------------Solution composition------------------------------

	Elements           Molality       Moles

	F                 4.988e-01   4.988e-01
	Na                4.988e-01   4.988e-01

----------------------------Description of solution----------------------------

                                       pH  =   7.765      Charge balance
                                       pe  =   2.428      Adjusted to redox equilibrium
      Specific Conductance (µS/cm, 300°C)  = 125356
                          Density (g/cm³)  =   0.78243
                               Volume (L)  =   1.30484
                        Viscosity (mPa s)  =   0.11533 (solute contributions limited to 200 °C)
                        Activity of water  =   0.986
                 Ionic strength (mol/kgw)  =   3.340e-01
                       Mass of water (kg)  =   1.000e+00
                 Total alkalinity (eq/kg)  =  -3.701e-12
                         Temperature (°C)  = 299.55
                           Pressure (atm)  = 299.06
                  Electrical balance (eq)  =   2.077e-12
 Percent error, 100*(Cat-|An|)/(Cat+|An|)  =   0.00
                               Iterations  =   8
                                  Total H  = 1.110124e+02
                                  Total O  = 5.550622e+01

----------------------------Distribution of species----------------------------

                                               Log       Log       Log    mole V
   Species          Molality    Activity  Molality  Activity     Gamma   cm³/mol

   OH-             1.052e-03   4.540e-04    -2.978    -3.343    -0.365    -95.67
   H+              2.822e-08   1.717e-08    -7.549    -7.765    -0.216      0.00
   H2O             5.551e+01   9.858e-01     1.744    -0.006     0.000     23.97
F             4.988e-01
   F-              3.329e-01   1.334e-01    -0.478    -0.875    -0.397    -88.71
   NaF             1.648e-01   1.922e-01    -0.783    -0.716     0.067     11.55
   HF              9.968e-04   1.077e-03    -3.001    -2.968     0.033     15.09
   HF2-            5.557e-05   2.781e-05    -4.255    -4.556    -0.301    -32.28
H(0)          9.939e-25
   H2              4.969e-25   5.387e-25   -24.304   -24.269     0.035     41.58
Na            4.988e-01
   Na+             3.340e-01   1.625e-01    -0.476    -0.789    -0.313      6.17
   NaF             1.648e-01   1.922e-01    -0.783    -0.716     0.067     11.55
O(0)          4.890e-11
   O2              2.445e-11   2.641e-11   -10.612   -10.578     0.033     56.48

------------------------------Saturation indices-------------------------------

  Phase               SI** log IAP   log K(572 K, 299 atm)

  H2(g)           -21.91    -24.27   -2.35  H2
  H2O(g)            1.86     -0.01   -1.87  H2O
  O2(g)            -8.06    -10.58   -2.52  O2

**For a gas, SI = log10(fugacity). Fugacity = pressure * phi / 1 atm.
  For ideal gases, phi = 1.

Reaction step 12.

Using solution 1.	
Using temperature 1.	
Using pressure 1.	
Using reaction 1.	

Reaction 1.	

	  4.988e-01 moles of the following reaction have been added:

	                 Relative
	Reactant            moles

	NaF                  1.00000

	                 Relative
	Element             moles
	F                    1.00000
	Na                   1.00000

-----------------------------Solution composition------------------------------

	Elements           Molality       Moles

	F                 4.988e-01   4.988e-01
	Na                4.988e-01   4.988e-01

----------------------------Description of solution----------------------------

                                       pH  =   7.765      Charge balance
                                       pe  =   2.428      Adjusted to redox equilibrium
      Specific Conductance (µS/cm, 300°C)  = 125356
                          Density (g/cm³)  =   0.78243
                               Volume (L)  =   1.30484
                        Viscosity (mPa s)  =   0.11533 (solute contributions limited to 200 °C)
                        Activity of water  =   0.986
                 Ionic strength (mol/kgw)  =   3.340e-01
                       Mass of water (kg)  =   1.000e+00
                 Total alkalinity (eq/kg)  =  -3.701e-12
                         Temperature (°C)  = 299.55
                           Pressure (atm)  = 299.06
                  Electrical balance (eq)  =   2.077e-12
 Percent error, 100*(Cat-|An|)/(Cat+|An|)  =   0.00
                               Iterations  =   8
                                  Total H  = 1.110124e+02
                                  Total O  = 5.550622e+01

----------------------------Distribution of species----------------------------

                                               Log       Log       Log    mole V
   Species          Molality    Activity  Molality  Activity     Gamma   cm³/mol

   OH-             1.052e-03   4.540e-04    -2.978    -3.343    -0.365    -95.67
   H+              2.822e-08   1.717e-08    -7.549    -7.765    -0.216      0.00
   H2O             5.551e+01   9.858e-01     1.744    -0.006     0.000     23.97
F             4.988e-01
   F-              3.329e-01   1.334e-01    -0.478    -0.875    -0.397    -88.71
   NaF             1.648e-01   1.922e-01    -0.783    -0.716     0.067     11.55
   HF              9.968e-04   1.077e-03    -3.001    -2.968     0.033     15.09
   HF2-            5.557e-05   2.781e-05    -4.255    -4.556    -0.301    -32.28
H(0)          9.939e-25
   H2              4.969e-25   5.387e-25   -24.304   -24.269     0.035     41.58
Na            4.988e-01
   Na+             3.340e-01   1.625e-01    -0.476    -0.789    -0.313      6.17
   NaF             1.648e-01   1.922e-01    -0.783    -0.716     0.067     11.55
O(0)          4.890e-11
   O2              2.445e-11   2.641e-11   -10.612   -10.578     0.033     56.48

------------------------------Saturation indices-------------------------------

  Phase               SI** log IAP   log K(572 K, 299 atm)

  H2(g)           -21.91    -24.27   -2.35  H2
  H2O(g)            1.86     -0.01   -1.87  H2O
  O2(g)            -8.06    -10.58   -2.52  O2

**For a gas, SI = log10(fugacity). Fugacity = pressure * phi / 1 atm.
  For ideal gases, phi = 1.

------------------
End of simulation.
------------------

-------------------------------------
Reading input data for simulation 13.
-------------------------------------

