WARNING: Database file from DATABASE keyword is used; command line argument ignored.
   Input file: Vm_NaF
  Output file: Vm_NaF.out
Database file: ../database/phreeqc.dat

------------------
Reading data base.
------------------

	SOLUTION_MASTER_SPECIES
	SOLUTION_SPECIES
	PHASES
	GAS_BINARY_PARAMETERS
	EXCHANGE_MASTER_SPECIES
	EXCHANGE_SPECIES
	SURFACE_MASTER_SPECIES
	SURFACE_SPECIES
	MEAN_GAMMAS
	RATES
	END
------------------------------------
Reading input data for simulation 1.
------------------------------------

	database ../database/phreeqc.dat
	SELECTED_OUTPUT 101
	    file                 Vm_NaF_101.sel
	USER_PUNCH 101
	    headings Mu SC
	    start
	10 PUNCH STR_F$(MU, 20, 12)
	20 PUNCH STR_F$(SC, 20, 10)
	    end
	SOLUTION 1
	 pH 7 charge
	END
-------------------------------------------
Beginning of initial solution calculations.
-------------------------------------------

Initial solution 1.	

-----------------------------Solution composition------------------------------

	Elements           Molality       Moles

	Pure water     

----------------------------Description of solution----------------------------

                                       pH  =   6.997      Charge balance
                                       pe  =   4.000    
      Specific Conductance (µS/cm,  25°C)  = 0
                          Density (g/cm³)  =   0.99704
                               Volume (L)  =   1.00297
                        Viscosity (mPa s)  =   0.89002
                        Activity of water  =   1.000
                 Ionic strength (mol/kgw)  =   1.006e-07
                       Mass of water (kg)  =   1.000e+00
                 Total alkalinity (eq/kg)  =   3.040e-17
                         Temperature (°C)  =  25.00
                  Electrical balance (eq)  =  -3.040e-17
 Percent error, 100*(Cat-|An|)/(Cat+|An|)  =  -0.00
                               Iterations  =   2
                                  Total H  = 1.110124e+02
                                  Total O  = 5.550622e+01

----------------------------Distribution of species----------------------------

                                               Log       Log       Log    mole V
   Species          Molality    Activity  Molality  Activity     Gamma   cm³/mol

   OH-             1.006e-07   1.006e-07    -6.997    -6.997    -0.000     -4.14
   H+              1.006e-07   1.006e-07    -6.997    -6.997    -0.000      0.00
   H2O             5.551e+01   1.000e+00     1.744    -0.000     0.000     18.07
H(0)          1.433e-25
   H2              7.166e-26   7.166e-26   -25.145   -25.145     0.000     14.99
O(0)          0.000e+00
   O2              0.000e+00   0.000e+00   -42.073   -42.073     0.000     30.40

------------------------------Saturation indices-------------------------------

  Phase               SI** log IAP   log K(298 K,   1 atm)

  H2(g)           -22.05    -25.14   -3.10  H2
  H2O(g)           -1.50     -0.00    1.50  H2O
  O2(g)           -39.18    -42.07   -2.89  O2

**For a gas, SI = log10(fugacity). Fugacity = pressure * phi / 1 atm.
  For ideal gases, phi = 1.

------------------
End of simulation.
------------------

------------------------------------
Reading input data for simulation 2.
------------------------------------

	USE solution 1
	REACTION_TEMPERATURE
	 25.000000
	REACTION_PRESSURE
	 1.000000
	REACTION
	 NaF 1
	0 0.024030 0.026730 0.029430 0.032170 0.055600 0.071470 0.082280 0.096750 0.100100 0.100840 0.119920 0.140000 0.158450 0.180380 0.183090 0.201200 0.206570 0.220100 0.231260 0.268450 0.293150 0.296340 0.300330 0.330420 0.355200 0.382290 0.399850 0.404860 0.439120 0.479350 0.492590 0.499910 0.524440 0.553090 0.581590 0.590120 0.600200 0.610100 0.638660 0.666520 0.667370 0.688110 0.696180 0.708040 0.710010 0.724820 0.753530 0.782100 0.797440 0.810950 0.839940 0.868810 0.897380 0.926360 
	USER_GRAPH
	 -headings 25.oC-1.atm
	 -axis_titles "NaF / (mol/kg H2O)" "NaF molar volume / (cm3/mol)"
	10 data 0, -2.508000, -2.408000, -2.360000, -2.441000, -2.174000, -2.061000, -2.038000, -1.963000, -1.805000, -2.042000, -1.741000, -1.679000, -1.745000, -1.564000, -1.641000, -1.557000, -1.641000, -1.456000, -1.565000, -1.447000, -1.388000, -1.311000, -1.263000, -1.285000, -1.222000, -1.234000, -1.043000, -1.075000, -1.115000, -0.877000, -0.972000, -0.845000, -0.926000, -0.865000, -0.802000, -0.669000, -0.649000, -0.754000, -0.693000, -0.621000, -0.635000, -0.577000, -0.579000, -0.463000, -0.510000, -0.521000, -0.467000, -0.406000, -0.321000, -0.347000, -0.295000, -0.241000, -0.190000, -0.118000, 
	20 dim d(55)
	30 for i = 1 to step_no : read d(i) : next i
	40 if step_no = 1 then put(rho, 10) : if tc = 0 then put(0, 1) : put(0, 2)
	50 if step_no > 1 then F = tot("F") : Vmol = (1e3 + F * 41.9882) / (F * rho) - 1e3 / (F * get(10))
	60 if step_no = 1 then dif = 0 else dif = Vmol - d(step_no)
	70 put(abs(dif) + get(1), 1) : put(1 + get(2), 2)
	100 if step_no = 1 then goto 150
	110 plot_xy F^0.5, d(step_no), symbol = XCross, line_w = 0, color = Black
	120 plot_xy F^0.5, Vmol, symbol = None, color = Black
	130 if step_no = 55 then print 'Laliberte, 25C, AAD ' + str_f$(get(1) / get(2), 0, 3) + ' cm3/mol'
	150 end
	END
-----------------------------------------
Beginning of batch-reaction calculations.
-----------------------------------------

Reaction step 1.

Using solution 1.	
Using temperature 1.	
Using pressure 1.	
Using reaction 1.	

Reaction 1.	

	  0.000e+00 moles of the following reaction have been added:

	                 Relative
	Reactant            moles

	NaF                  1.00000

	                 Relative
	Element             moles
	F                    1.00000
	Na                   1.00000

-----------------------------Solution composition------------------------------

	Elements           Molality       Moles

	Pure water     

----------------------------Description of solution----------------------------

                                       pH  =   6.997      Charge balance
                                       pe  =   4.000      Adjusted to redox equilibrium
      Specific Conductance (µS/cm,  25°C)  = 0
                          Density (g/cm³)  =   0.99704
                               Volume (L)  =   1.00297
                        Viscosity (mPa s)  =   0.89002
                        Activity of water  =   1.000
                 Ionic strength (mol/kgw)  =   1.006e-07
                       Mass of water (kg)  =   1.000e+00
                 Total alkalinity (eq/kg)  =   3.040e-17
                         Temperature (°C)  =  25.00
                  Electrical balance (eq)  =  -3.040e-17
 Percent error, 100*(Cat-|An|)/(Cat+|An|)  =  -0.00
                               Iterations  =   0
                                  Total H  = 1.110124e+02
                                  Total O  = 5.550622e+01

----------------------------Distribution of species----------------------------

                                               Log       Log       Log    mole V
   Species          Molality    Activity  Molality  Activity     Gamma   cm³/mol

   OH-             1.006e-07   1.006e-07    -6.997    -6.997    -0.000     -4.14
   H+              1.006e-07   1.006e-07    -6.997    -6.997    -0.000      0.00
   H2O             5.551e+01   1.000e+00     1.744    -0.000     0.000     18.07
H(0)          1.433e-25
   H2              7.166e-26   7.166e-26   -25.145   -25.145     0.000     14.99
O(0)          0.000e+00
   O2              0.000e+00   0.000e+00   -42.073   -42.073     0.000     30.40

------------------------------Saturation indices-------------------------------

  Phase               SI** log IAP   log K(298 K,   1 atm)

  H2(g)           -22.05    -25.14   -3.10  H2
  H2O(g)           -1.50     -0.00    1.50  H2O
  O2(g)           -39.18    -42.07   -2.89  O2

**For a gas, SI = log10(fugacity). Fugacity = pressure * phi / 1 atm.
  For ideal gases, phi = 1.

Reaction step 2.

Using solution 1.	
Using temperature 1.	
Using pressure 1.	
Using reaction 1.	

Reaction 1.	

	  2.403e-02 moles of the following reaction have been added:

	                 Relative
	Reactant            moles

	NaF                  1.00000

	                 Relative
	Element             moles
	F                    1.00000
	Na                   1.00000

-----------------------------Solution composition------------------------------

	Elements           Molality       Moles

	F                 2.403e-02   2.403e-02
	Na                2.403e-02   2.403e-02

----------------------------Description of solution----------------------------

                                       pH  =   7.734      Charge balance
                                       pe  =  -0.876      Adjusted to redox equilibrium
      Specific Conductance (µS/cm,  25°C)  = 2247
                          Density (g/cm³)  =   0.99811
                               Volume (L)  =   1.00290
                        Viscosity (mPa s)  =   0.89669
                        Activity of water  =   0.999
                 Ionic strength (mol/kgw)  =   2.403e-02
                       Mass of water (kg)  =   1.000e+00
                 Total alkalinity (eq/kg)  =  -3.191e-15
                         Temperature (°C)  =  25.00
                  Electrical balance (eq)  =  -1.167e-12
 Percent error, 100*(Cat-|An|)/(Cat+|An|)  =  -0.00
                               Iterations  =   8
                                  Total H  = 1.110124e+02
                                  Total O  = 5.550622e+01

----------------------------Distribution of species----------------------------

                                               Log       Log       Log    mole V
   Species          Molality    Activity  Molality  Activity     Gamma   cm³/mol

   OH-             6.397e-07   5.481e-07    -6.194    -6.261    -0.067     -3.97
   H+              2.090e-08   1.845e-08    -7.680    -7.734    -0.054      0.00
   H2O             5.551e+01   9.992e-01     1.744    -0.000     0.000     18.07
F             2.403e-02
   F-              2.403e-02   2.059e-02    -1.619    -1.686    -0.067     -1.45
   NaF             1.750e-06   1.770e-06    -5.757    -5.752     0.005      7.60
   HF              5.666e-07   5.697e-07    -6.247    -6.244     0.002     12.50
   HF2-            5.224e-08   4.500e-08    -7.282    -7.347    -0.065     22.18
H(0)          2.710e-17
   H2              1.355e-17   1.363e-17   -16.868   -16.866     0.003     14.99
Na            2.403e-02
   Na+             2.403e-02   2.076e-02    -1.619    -1.683    -0.063     -1.30
   NaF             1.750e-06   1.770e-06    -5.757    -5.752     0.005      7.60
O(0)          0.000e+00
   O2              0.000e+00   0.000e+00   -58.635   -58.632     0.002     30.40

------------------------------Saturation indices-------------------------------

  Phase               SI** log IAP   log K(298 K,   1 atm)

  H2(g)           -13.77    -16.87   -3.10  H2
  H2O(g)           -1.50     -0.00    1.50  H2O
  O2(g)           -55.74    -58.63   -2.89  O2

**For a gas, SI = log10(fugacity). Fugacity = pressure * phi / 1 atm.
  For ideal gases, phi = 1.

Reaction step 3.

Using solution 1.	
Using temperature 1.	
Using pressure 1.	
Using reaction 1.	

Reaction 1.	

	  2.673e-02 moles of the following reaction have been added:

	                 Relative
	Reactant            moles

	NaF                  1.00000

	                 Relative
	Element             moles
	F                    1.00000
	Na                   1.00000

-----------------------------Solution composition------------------------------

	Elements           Molality       Moles

	F                 2.673e-02   2.673e-02
	Na                2.673e-02   2.673e-02

----------------------------Description of solution----------------------------

                                       pH  =   7.755      Charge balance
                                       pe  =  -0.946      Adjusted to redox equilibrium
      Specific Conductance (µS/cm,  25°C)  = 2487
                          Density (g/cm³)  =   0.99823
                               Volume (L)  =   1.00289
                        Viscosity (mPa s)  =   0.89733
                        Activity of water  =   0.999
                 Ionic strength (mol/kgw)  =   2.673e-02
                       Mass of water (kg)  =   1.000e+00
                 Total alkalinity (eq/kg)  =  -1.165e-14
                         Temperature (°C)  =  25.00
                  Electrical balance (eq)  =  -2.954e-12
 Percent error, 100*(Cat-|An|)/(Cat+|An|)  =  -0.00
                               Iterations  =   8
                                  Total H  = 1.110124e+02
                                  Total O  = 5.550622e+01

----------------------------Distribution of species----------------------------

                                               Log       Log       Log    mole V
   Species          Molality    Activity  Molality  Activity     Gamma   cm³/mol

   OH-             6.765e-07   5.756e-07    -6.170    -6.240    -0.070     -3.95
   H+              2.000e-08   1.757e-08    -7.699    -7.755    -0.056      0.00
   H2O             5.551e+01   9.991e-01     1.744    -0.000     0.000     18.07
F             2.673e-02
   F-              2.673e-02   2.274e-02    -1.573    -1.643    -0.070     -1.44
   NaF             2.134e-06   2.161e-06    -5.671    -5.665     0.005      7.60
   HF              5.955e-07   5.991e-07    -6.225    -6.222     0.003     12.50
   HF2-            6.107e-08   5.227e-08    -7.214    -7.282    -0.068     22.19
H(0)          3.383e-17
   H2              1.692e-17   1.702e-17   -16.772   -16.769     0.003     14.99
Na            2.673e-02
   Na+             2.673e-02   2.295e-02    -1.573    -1.639    -0.066     -1.29
   NaF             2.134e-06   2.161e-06    -5.671    -5.665     0.005      7.60
O(0)          0.000e+00
   O2              0.000e+00   0.000e+00   -58.828   -58.826     0.003     30.40

------------------------------Saturation indices-------------------------------

  Phase               SI** log IAP   log K(298 K,   1 atm)

  H2(g)           -13.67    -16.77   -3.10  H2
  H2O(g)           -1.50     -0.00    1.50  H2O
  O2(g)           -55.93    -58.83   -2.89  O2

**For a gas, SI = log10(fugacity). Fugacity = pressure * phi / 1 atm.
  For ideal gases, phi = 1.

Reaction step 4.

Using solution 1.	
Using temperature 1.	
Using pressure 1.	
Using reaction 1.	

Reaction 1.	

	  2.943e-02 moles of the following reaction have been added:

	                 Relative
	Reactant            moles

	NaF                  1.00000

	                 Relative
	Element             moles
	F                    1.00000
	Na                   1.00000

-----------------------------Solution composition------------------------------

	Elements           Molality       Moles

	F                 2.943e-02   2.943e-02
	Na                2.943e-02   2.943e-02

----------------------------Description of solution----------------------------

                                       pH  =   7.775      Charge balance
                                       pe  =  -0.946      Adjusted to redox equilibrium
      Specific Conductance (µS/cm,  25°C)  = 2726
                          Density (g/cm³)  =   0.99835
                               Volume (L)  =   1.00289
                        Viscosity (mPa s)  =   0.89796
                        Activity of water  =   0.999
                 Ionic strength (mol/kgw)  =   2.943e-02
                       Mass of water (kg)  =   1.000e+00
                 Total alkalinity (eq/kg)  =  -3.785e-14
                         Temperature (°C)  =  25.00
                  Electrical balance (eq)  =  -6.801e-12
 Percent error, 100*(Cat-|An|)/(Cat+|An|)  =  -0.00
                               Iterations  =   8
                                  Total H  = 1.110124e+02
                                  Total O  = 5.550622e+01

----------------------------Distribution of species----------------------------

                                               Log       Log       Log    mole V
   Species          Molality    Activity  Molality  Activity     Gamma   cm³/mol

   OH-             7.120e-07   6.017e-07    -6.148    -6.221    -0.073     -3.94
   H+              1.921e-08   1.680e-08    -7.717    -7.775    -0.058      0.00
   H2O             5.551e+01   9.990e-01     1.744    -0.000     0.000     18.07
F             2.943e-02
   F-              2.943e-02   2.487e-02    -1.531    -1.604    -0.073     -1.43
   NaF             2.552e-06   2.587e-06    -5.593    -5.587     0.006      7.60
   HF              6.225e-07   6.267e-07    -6.206    -6.203     0.003     12.50
   HF2-            7.029e-08   5.980e-08    -7.153    -7.223    -0.070     22.19
H(0)          3.089e-17
   H2              1.545e-17   1.556e-17   -16.811   -16.808     0.003     14.99
Na            2.943e-02
   Na+             2.943e-02   2.512e-02    -1.531    -1.600    -0.069     -1.28
   NaF             2.552e-06   2.587e-06    -5.593    -5.587     0.006      7.60
O(0)          0.000e+00
   O2              0.000e+00   0.000e+00   -58.750   -58.747     0.003     30.40

------------------------------Saturation indices-------------------------------

  Phase               SI** log IAP   log K(298 K,   1 atm)

  H2(g)           -13.71    -16.81   -3.10  H2
  H2O(g)           -1.50     -0.00    1.50  H2O
  O2(g)           -55.85    -58.75   -2.89  O2

**For a gas, SI = log10(fugacity). Fugacity = pressure * phi / 1 atm.
  For ideal gases, phi = 1.

Reaction step 5.

Using solution 1.	
Using temperature 1.	
Using pressure 1.	
Using reaction 1.	

Reaction 1.	

	  3.217e-02 moles of the following reaction have been added:

	                 Relative
	Reactant            moles

	NaF                  1.00000

	                 Relative
	Element             moles
	F                    1.00000
	Na                   1.00000

-----------------------------Solution composition------------------------------

	Elements           Molality       Moles

	F                 3.217e-02   3.217e-02
	Na                3.217e-02   3.217e-02

----------------------------Description of solution----------------------------

                                       pH  =   7.793      Charge balance
                                       pe  =  -0.929      Adjusted to redox equilibrium
      Specific Conductance (µS/cm,  25°C)  = 2966
                          Density (g/cm³)  =   0.99848
                               Volume (L)  =   1.00288
                        Viscosity (mPa s)  =   0.89860
                        Activity of water  =   0.999
                 Ionic strength (mol/kgw)  =   3.217e-02
                       Mass of water (kg)  =   1.000e+00
                 Total alkalinity (eq/kg)  =  -1.009e-13
                         Temperature (°C)  =  25.00
                  Electrical balance (eq)  =  -1.357e-11
 Percent error, 100*(Cat-|An|)/(Cat+|An|)  =  -0.00
                               Iterations  =   8
                                  Total H  = 1.110124e+02
                                  Total O  = 5.550622e+01

----------------------------Distribution of species----------------------------

                                               Log       Log       Log    mole V
   Species          Molality    Activity  Molality  Activity     Gamma   cm³/mol

   OH-             7.468e-07   6.271e-07    -6.127    -6.203    -0.076     -3.93
   H+              1.850e-08   1.612e-08    -7.733    -7.793    -0.060      0.00
   H2O             5.551e+01   9.989e-01     1.744    -0.000     0.000     18.07
F             3.217e-02
   F-              3.217e-02   2.701e-02    -1.493    -1.568    -0.076     -1.42
   NaF             3.009e-06   3.054e-06    -5.522    -5.515     0.006      7.60
   HF              6.483e-07   6.531e-07    -6.188    -6.185     0.003     12.50
   HF2-            8.002e-08   6.769e-08    -7.097    -7.169    -0.073     22.20
H(0)          2.627e-17
   H2              1.314e-17   1.324e-17   -16.882   -16.878     0.003     14.99
Na            3.217e-02
   Na+             3.217e-02   2.731e-02    -1.493    -1.564    -0.071     -1.27
   NaF             3.009e-06   3.054e-06    -5.522    -5.515     0.006      7.60
O(0)          0.000e+00
   O2              0.000e+00   0.000e+00   -58.610   -58.607     0.003     30.40

------------------------------Saturation indices-------------------------------

  Phase               SI** log IAP   log K(298 K,   1 atm)

  H2(g)           -13.78    -16.88   -3.10  H2
  H2O(g)           -1.50     -0.00    1.50  H2O
  O2(g)           -55.71    -58.61   -2.89  O2

**For a gas, SI = log10(fugacity). Fugacity = pressure * phi / 1 atm.
  For ideal gases, phi = 1.

Reaction step 6.

Using solution 1.	
Using temperature 1.	
Using pressure 1.	
Using reaction 1.	

Reaction 1.	

	  5.560e-02 moles of the following reaction have been added:

	                 Relative
	Reactant            moles

	NaF                  1.00000

	                 Relative
	Element             moles
	F                    1.00000
	Na                   1.00000

-----------------------------Solution composition------------------------------

	Elements           Molality       Moles

	F                 5.560e-02   5.560e-02
	Na                5.560e-02   5.560e-02

----------------------------Description of solution----------------------------

                                       pH  =   7.906      Charge balance
                                       pe  =  -1.076      Adjusted to redox equilibrium
      Specific Conductance (µS/cm,  25°C)  = 4974
                          Density (g/cm³)  =   0.99951
                               Volume (L)  =   1.00282
                        Viscosity (mPa s)  =   0.90388
                        Activity of water  =   0.998
                 Ionic strength (mol/kgw)  =   5.559e-02
                       Mass of water (kg)  =   1.000e+00
                 Total alkalinity (eq/kg)  =  -1.084e-11
                         Temperature (°C)  =  25.00
                  Electrical balance (eq)  =  -3.675e-10
 Percent error, 100*(Cat-|An|)/(Cat+|An|)  =  -0.00
                               Iterations  =   8
                                  Total H  = 1.110124e+02
                                  Total O  = 5.550622e+01

----------------------------Distribution of species----------------------------

                                               Log       Log       Log    mole V
   Species          Molality    Activity  Molality  Activity     Gamma   cm³/mol

   OH-             1.012e-06   8.137e-07    -5.995    -6.090    -0.095     -3.86
   H+              1.462e-08   1.242e-08    -7.835    -7.906    -0.071      0.00
   H2O             5.551e+01   9.981e-01     1.744    -0.001     0.000     18.07
F             5.560e-02
   F-              5.559e-02   4.471e-02    -1.255    -1.350    -0.095     -1.34
   NaF             8.213e-06   8.426e-06    -5.085    -5.074     0.011      7.60
   HF              8.219e-07   8.325e-07    -6.085    -6.080     0.006     12.50
   HF2-            1.752e-07   1.428e-07    -6.756    -6.845    -0.089     22.25
H(0)          3.053e-17
   H2              1.527e-17   1.547e-17   -16.816   -16.810     0.006     14.99
Na            5.560e-02
   Na+             5.559e-02   4.552e-02    -1.255    -1.342    -0.087     -1.20
   NaF             8.213e-06   8.426e-06    -5.085    -5.074     0.011      7.60
O(0)          0.000e+00
   O2              0.000e+00   0.000e+00   -58.749   -58.743     0.006     30.40

------------------------------Saturation indices-------------------------------

  Phase               SI** log IAP   log K(298 K,   1 atm)

  H2(g)           -13.71    -16.81   -3.10  H2
  H2O(g)           -1.50     -0.00    1.50  H2O
  O2(g)           -55.85    -58.74   -2.89  O2

**For a gas, SI = log10(fugacity). Fugacity = pressure * phi / 1 atm.
  For ideal gases, phi = 1.

Reaction step 7.

Using solution 1.	
Using temperature 1.	
Using pressure 1.	
Using reaction 1.	

Reaction 1.	

	  7.147e-02 moles of the following reaction have been added:

	                 Relative
	Reactant            moles

	NaF                  1.00000

	                 Relative
	Element             moles
	F                    1.00000
	Na                   1.00000

-----------------------------Solution composition------------------------------

	Elements           Molality       Moles

	F                 7.147e-02   7.147e-02
	Na                7.147e-02   7.147e-02

----------------------------Description of solution----------------------------

                                       pH  =   7.960      Charge balance
                                       pe  =  -1.131      Adjusted to redox equilibrium
      Specific Conductance (µS/cm,  25°C)  = 6294
                          Density (g/cm³)  =   1.00021
                               Volume (L)  =   1.00279
                        Viscosity (mPa s)  =   0.90734
                        Activity of water  =   0.998
                 Ionic strength (mol/kgw)  =   7.146e-02
                       Mass of water (kg)  =   1.000e+00
                 Total alkalinity (eq/kg)  =   2.760e-17
                         Temperature (°C)  =  25.00
                  Electrical balance (eq)  =  -5.279e-15
 Percent error, 100*(Cat-|An|)/(Cat+|An|)  =  -0.00
                               Iterations  =   9
                                  Total H  = 1.110124e+02
                                  Total O  = 5.550622e+01

----------------------------Distribution of species----------------------------

                                               Log       Log       Log    mole V
   Species          Molality    Activity  Molality  Activity     Gamma   cm³/mol

   OH-             1.171e-06   9.210e-07    -5.931    -6.036    -0.104     -3.81
   H+              1.306e-08   1.096e-08    -7.884    -7.960    -0.076      0.00
   H2O             5.551e+01   9.976e-01     1.744    -0.001     0.000     18.07
F             7.147e-02
   F-              7.146e-02   5.620e-02    -1.146    -1.250    -0.104     -1.29
   NaF             1.294e-05   1.338e-05    -4.888    -4.874     0.014      7.60
   HF              9.090e-07   9.241e-07    -6.041    -6.034     0.007     12.50
   HF2-            2.489e-07   1.993e-07    -6.604    -6.701    -0.097     22.28
H(0)          3.053e-17
   H2              1.527e-17   1.553e-17   -16.816   -16.809     0.008     14.99
Na            7.147e-02
   Na+             7.146e-02   5.748e-02    -1.146    -1.240    -0.095     -1.15
   NaF             1.294e-05   1.338e-05    -4.888    -4.874     0.014      7.60
O(0)          0.000e+00
   O2              0.000e+00   0.000e+00   -58.754   -58.747     0.007     30.40

------------------------------Saturation indices-------------------------------

  Phase               SI** log IAP   log K(298 K,   1 atm)

  H2(g)           -13.71    -16.81   -3.10  H2
  H2O(g)           -1.50     -0.00    1.50  H2O
  O2(g)           -55.85    -58.75   -2.89  O2

**For a gas, SI = log10(fugacity). Fugacity = pressure * phi / 1 atm.
  For ideal gases, phi = 1.

Reaction step 8.

Using solution 1.	
Using temperature 1.	
Using pressure 1.	
Using reaction 1.	

Reaction 1.	

	  8.228e-02 moles of the following reaction have been added:

	                 Relative
	Reactant            moles

	NaF                  1.00000

	                 Relative
	Element             moles
	F                    1.00000
	Na                   1.00000

-----------------------------Solution composition------------------------------

	Elements           Molality       Moles

	F                 8.228e-02   8.228e-02
	Na                8.228e-02   8.228e-02

----------------------------Description of solution----------------------------

                                       pH  =   7.991      Charge balance
                                       pe  =  -1.206      Adjusted to redox equilibrium
      Specific Conductance (µS/cm,  25°C)  = 7178
                          Density (g/cm³)  =   1.00068
                               Volume (L)  =   1.00277
                        Viscosity (mPa s)  =   0.90967
                        Activity of water  =   0.997
                 Ionic strength (mol/kgw)  =   8.226e-02
                       Mass of water (kg)  =   1.000e+00
                 Total alkalinity (eq/kg)  =   3.038e-17
                         Temperature (°C)  =  25.00
                  Electrical balance (eq)  =  -1.136e-14
 Percent error, 100*(Cat-|An|)/(Cat+|An|)  =  -0.00
                               Iterations  =   9
                                  Total H  = 1.110124e+02
                                  Total O  = 5.550622e+01

----------------------------Distribution of species----------------------------

                                               Log       Log       Log    mole V
   Species          Molality    Activity  Molality  Activity     Gamma   cm³/mol

   OH-             1.274e-06   9.887e-07    -5.895    -6.005    -0.110     -3.78
   H+              1.225e-08   1.021e-08    -7.912    -7.991    -0.079      0.00
   H2O             5.551e+01   9.972e-01     1.744    -0.001     0.000     18.07
F             8.228e-02
   F-              8.226e-02   6.385e-02    -1.085    -1.195    -0.110     -1.26
   NaF             1.668e-05   1.732e-05    -4.778    -4.761     0.016      7.60
   HF              9.592e-07   9.776e-07    -6.018    -6.010     0.008     12.50
   HF2-            3.023e-07   2.395e-07    -6.520    -6.621    -0.101     22.30
H(0)          3.728e-17
   H2              1.864e-17   1.901e-17   -16.730   -16.721     0.009     14.99
Na            8.228e-02
   Na+             8.226e-02   6.551e-02    -1.085    -1.184    -0.099     -1.13
   NaF             1.668e-05   1.732e-05    -4.778    -4.761     0.016      7.60
O(0)          0.000e+00
   O2              0.000e+00   0.000e+00   -58.931   -58.923     0.008     30.40

------------------------------Saturation indices-------------------------------

  Phase               SI** log IAP   log K(298 K,   1 atm)

  H2(g)           -13.62    -16.72   -3.10  H2
  H2O(g)           -1.50     -0.00    1.50  H2O
  O2(g)           -56.03    -58.92   -2.89  O2

**For a gas, SI = log10(fugacity). Fugacity = pressure * phi / 1 atm.
  For ideal gases, phi = 1.

Reaction step 9.

Using solution 1.	
Using temperature 1.	
Using pressure 1.	
Using reaction 1.	

Reaction 1.	

	  9.675e-02 moles of the following reaction have been added:

	                 Relative
	Reactant            moles

	NaF                  1.00000

	                 Relative
	Element             moles
	F                    1.00000
	Na                   1.00000

-----------------------------Solution composition------------------------------

	Elements           Molality       Moles

	F                 9.675e-02   9.675e-02
	Na                9.675e-02   9.675e-02

----------------------------Description of solution----------------------------

                                       pH  =   8.027      Charge balance
                                       pe  =  -1.187      Adjusted to redox equilibrium
      Specific Conductance (µS/cm,  25°C)  = 8345
                          Density (g/cm³)  =   1.00132
                               Volume (L)  =   1.00274
                        Viscosity (mPa s)  =   0.91275
                        Activity of water  =   0.997
                 Ionic strength (mol/kgw)  =   9.673e-02
                       Mass of water (kg)  =   1.000e+00
                 Total alkalinity (eq/kg)  =  -3.694e-16
                         Temperature (°C)  =  25.00
                  Electrical balance (eq)  =  -3.718e-13
 Percent error, 100*(Cat-|An|)/(Cat+|An|)  =  -0.00
                               Iterations  =   9
                                  Total H  = 1.110124e+02
                                  Total O  = 5.550622e+01

----------------------------Distribution of species----------------------------

                                               Log       Log       Log    mole V
   Species          Molality    Activity  Molality  Activity     Gamma   cm³/mol

   OH-             1.406e-06   1.074e-06    -5.852    -5.969    -0.117     -3.74
   H+              1.136e-08   9.389e-09    -7.945    -8.027    -0.083      0.00
   H2O             5.551e+01   9.967e-01     1.744    -0.001     0.000     18.07
F             9.675e-02
   F-              9.673e-02   7.391e-02    -1.014    -1.131    -0.117     -1.21
   NaF             2.228e-05   2.330e-05    -4.652    -4.633     0.019      7.60
   HF              1.018e-06   1.041e-06    -5.992    -5.983     0.010     12.50
   HF2-            3.769e-07   2.951e-07    -6.424    -6.530    -0.106     22.32
H(0)          2.879e-17
   H2              1.440e-17   1.474e-17   -16.842   -16.832     0.010     14.99
Na            9.675e-02
   Na+             9.673e-02   7.612e-02    -1.014    -1.118    -0.104     -1.10
   NaF             2.228e-05   2.330e-05    -4.652    -4.633     0.019      7.60
O(0)          0.000e+00
   O2              0.000e+00   0.000e+00   -58.712   -58.702     0.010     30.40

------------------------------Saturation indices-------------------------------

  Phase               SI** log IAP   log K(298 K,   1 atm)

  H2(g)           -13.73    -16.83   -3.10  H2
  H2O(g)           -1.50     -0.00    1.50  H2O
  O2(g)           -55.81    -58.70   -2.89  O2

**For a gas, SI = log10(fugacity). Fugacity = pressure * phi / 1 atm.
  For ideal gases, phi = 1.

Reaction step 10.

Using solution 1.	
Using temperature 1.	
Using pressure 1.	
Using reaction 1.	

Reaction 1.	

	  1.001e-01 moles of the following reaction have been added:

	                 Relative
	Reactant            moles

	NaF                  1.00000

	                 Relative
	Element             moles
	F                    1.00000
	Na                   1.00000

-----------------------------Solution composition------------------------------

	Elements           Molality       Moles

	F                 1.001e-01   1.001e-01
	Na                1.001e-01   1.001e-01

----------------------------Description of solution----------------------------

                                       pH  =   8.035      Charge balance
                                       pe  =  -1.185      Adjusted to redox equilibrium
      Specific Conductance (µS/cm,  25°C)  = 8613
                          Density (g/cm³)  =   1.00146
                               Volume (L)  =   1.00274
                        Viscosity (mPa s)  =   0.91346
                        Activity of water  =   0.997
                 Ionic strength (mol/kgw)  =   1.001e-01
                       Mass of water (kg)  =   1.000e+00
                 Total alkalinity (eq/kg)  =  -6.183e-16
                         Temperature (°C)  =  25.00
                  Electrical balance (eq)  =  -5.463e-13
 Percent error, 100*(Cat-|An|)/(Cat+|An|)  =  -0.00
                               Iterations  =   9
                                  Total H  = 1.110124e+02
                                  Total O  = 5.550622e+01

----------------------------Distribution of species----------------------------

                                               Log       Log       Log    mole V
   Species          Molality    Activity  Molality  Activity     Gamma   cm³/mol

   OH-             1.436e-06   1.094e-06    -5.843    -5.961    -0.118     -3.73
   H+              1.118e-08   9.224e-09    -7.952    -8.035    -0.083      0.00
   H2O             5.551e+01   9.966e-01     1.744    -0.001     0.000     18.07
F             1.001e-01
   F-              1.001e-01   7.621e-02    -1.000    -1.118    -0.118     -1.20
   NaF             2.367e-05   2.479e-05    -4.626    -4.606     0.020      7.60
   HF              1.030e-06   1.054e-06    -5.987    -5.977     0.010     12.50
   HF2-            3.946e-07   3.083e-07    -6.404    -6.511    -0.107     22.33
H(0)          2.753e-17
   H2              1.376e-17   1.410e-17   -16.861   -16.851     0.011     14.99
Na            1.001e-01
   Na+             1.001e-01   7.857e-02    -1.000    -1.105    -0.105     -1.09
   NaF             2.367e-05   2.479e-05    -4.626    -4.606     0.020      7.60
O(0)          0.000e+00
   O2              0.000e+00   0.000e+00   -58.674   -58.664     0.010     30.40

------------------------------Saturation indices-------------------------------

  Phase               SI** log IAP   log K(298 K,   1 atm)

  H2(g)           -13.75    -16.85   -3.10  H2
  H2O(g)           -1.50     -0.00    1.50  H2O
  O2(g)           -55.77    -58.66   -2.89  O2

**For a gas, SI = log10(fugacity). Fugacity = pressure * phi / 1 atm.
  For ideal gases, phi = 1.

Reaction step 11.

Using solution 1.	
Using temperature 1.	
Using pressure 1.	
Using reaction 1.	

Reaction 1.	

	  1.008e-01 moles of the following reaction have been added:

	                 Relative
	Reactant            moles

	NaF                  1.00000

	                 Relative
	Element             moles
	F                    1.00000
	Na                   1.00000

-----------------------------Solution composition------------------------------

	Elements           Molality       Moles

	F                 1.008e-01   1.008e-01
	Na                1.008e-01   1.008e-01

----------------------------Description of solution----------------------------

                                       pH  =   8.037      Charge balance
                                       pe  =  -1.209      Adjusted to redox equilibrium
      Specific Conductance (µS/cm,  25°C)  = 8672
                          Density (g/cm³)  =   1.00150
                               Volume (L)  =   1.00273
                        Viscosity (mPa s)  =   0.91361
                        Activity of water  =   0.997
                 Ionic strength (mol/kgw)  =   1.008e-01
                       Mass of water (kg)  =   1.000e+00
                 Total alkalinity (eq/kg)  =  -2.942e-12
                         Temperature (°C)  =  25.00
                  Electrical balance (eq)  =  -1.905e-10
 Percent error, 100*(Cat-|An|)/(Cat+|An|)  =  -0.00
                               Iterations  =  11
                                  Total H  = 1.110124e+02
                                  Total O  = 5.550622e+01

----------------------------Distribution of species----------------------------

                                               Log       Log       Log    mole V
   Species          Molality    Activity  Molality  Activity     Gamma   cm³/mol

   OH-             1.443e-06   1.098e-06    -5.841    -5.959    -0.119     -3.73
   H+              1.114e-08   9.188e-09    -7.953    -8.037    -0.084      0.00
   H2O             5.551e+01   9.966e-01     1.744    -0.001     0.000     18.07
F             1.008e-01
   F-              1.008e-01   7.672e-02    -0.996    -1.115    -0.119     -1.20
   NaF             2.399e-05   2.513e-05    -4.620    -4.600     0.020      7.60
   HF              1.033e-06   1.057e-06    -5.986    -5.976     0.010     12.50
   HF2-            3.986e-07   3.112e-07    -6.399    -6.507    -0.107     22.33
H(0)          3.051e-17
   H2              1.525e-17   1.563e-17   -16.817   -16.806     0.011     14.99
Na            1.008e-01
   Na+             1.008e-01   7.910e-02    -0.996    -1.102    -0.105     -1.09
   NaF             2.399e-05   2.513e-05    -4.620    -4.600     0.020      7.60
O(0)          0.000e+00
   O2              0.000e+00   0.000e+00   -58.763   -58.753     0.010     30.40

------------------------------Saturation indices-------------------------------

  Phase               SI** log IAP   log K(298 K,   1 atm)

  H2(g)           -13.71    -16.81   -3.10  H2
  H2O(g)           -1.50     -0.00    1.50  H2O
  O2(g)           -55.86    -58.75   -2.89  O2

**For a gas, SI = log10(fugacity). Fugacity = pressure * phi / 1 atm.
  For ideal gases, phi = 1.

Reaction step 12.

Using solution 1.	
Using temperature 1.	
Using pressure 1.	
Using reaction 1.	

Reaction 1.	

	  1.199e-01 moles of the following reaction have been added:

	                 Relative
	Reactant            moles

	NaF                  1.00000

	                 Relative
	Element             moles
	F                    1.00000
	Na                   1.00000

-----------------------------Solution composition------------------------------

	Elements           Molality       Moles

	F                 1.199e-01   1.199e-01
	Na                1.199e-01   1.199e-01

----------------------------Description of solution----------------------------

                                       pH  =   8.077      Charge balance
                                       pe  =  -1.344      Adjusted to redox equilibrium
      Specific Conductance (µS/cm,  25°C)  = 10181
                          Density (g/cm³)  =   1.00233
                               Volume (L)  =   1.00270
                        Viscosity (mPa s)  =   0.91762
                        Activity of water  =   0.996
                 Ionic strength (mol/kgw)  =   1.199e-01
                       Mass of water (kg)  =   1.000e+00
                 Total alkalinity (eq/kg)  =  -1.472e-14
                         Temperature (°C)  =  25.00
                  Electrical balance (eq)  =  -5.622e-12
 Percent error, 100*(Cat-|An|)/(Cat+|An|)  =  -0.00
                               Iterations  =   9
                                  Total H  = 1.110124e+02
                                  Total O  = 5.550622e+01

----------------------------Distribution of species----------------------------

                                               Log       Log       Log    mole V
   Species          Molality    Activity  Molality  Activity     Gamma   cm³/mol

   OH-             1.609e-06   1.203e-06    -5.794    -5.920    -0.126     -3.68
   H+              1.025e-08   8.382e-09    -7.989    -8.077    -0.087      0.00
   H2O             5.551e+01   9.959e-01     1.744    -0.002     0.000     18.07
F             1.199e-01
   F-              1.199e-01   8.963e-02    -0.921    -1.048    -0.126     -1.15
   NaF             3.262e-05   3.447e-05    -4.486    -4.463     0.024      7.60
   HF              1.096e-06   1.127e-06    -5.960    -5.948     0.012     12.50
   HF2-            5.024e-07   3.875e-07    -6.299    -6.412    -0.113     22.36
H(0)          4.704e-17
   H2              2.352e-17   2.421e-17   -16.629   -16.616     0.013     14.99
Na            1.199e-01
   Na+             1.199e-01   9.289e-02    -0.921    -1.032    -0.111     -1.05
   NaF             3.262e-05   3.447e-05    -4.486    -4.463     0.024      7.60
O(0)          0.000e+00
   O2              0.000e+00   0.000e+00   -59.146   -59.134     0.012     30.40

------------------------------Saturation indices-------------------------------

  Phase               SI** log IAP   log K(298 K,   1 atm)

  H2(g)           -13.52    -16.62   -3.10  H2
  H2O(g)           -1.50     -0.00    1.50  H2O
  O2(g)           -56.24    -59.13   -2.89  O2

**For a gas, SI = log10(fugacity). Fugacity = pressure * phi / 1 atm.
  For ideal gases, phi = 1.

Reaction step 13.

Using solution 1.	
Using temperature 1.	
Using pressure 1.	
Using reaction 1.	

Reaction 1.	

	  1.400e-01 moles of the following reaction have been added:

	                 Relative
	Reactant            moles

	NaF                  1.00000

	                 Relative
	Element             moles
	F                    1.00000
	Na                   1.00000

-----------------------------Solution composition------------------------------

	Elements           Molality       Moles

	F                 1.400e-01   1.400e-01
	Na                1.400e-01   1.400e-01

----------------------------Description of solution----------------------------

                                       pH  =   8.113      Charge balance
                                       pe  =  -1.379      Adjusted to redox equilibrium
      Specific Conductance (µS/cm,  25°C)  = 11742
                          Density (g/cm³)  =   1.00320
                               Volume (L)  =   1.00267
                        Viscosity (mPa s)  =   0.92181
                        Activity of water  =   0.995
                 Ionic strength (mol/kgw)  =   1.400e-01
                       Mass of water (kg)  =   1.000e+00
                 Total alkalinity (eq/kg)  =  -2.396e-11
                         Temperature (°C)  =  25.00
                  Electrical balance (eq)  =  -8.744e-10
 Percent error, 100*(Cat-|An|)/(Cat+|An|)  =  -0.00
                               Iterations  =   9
                                  Total H  = 1.110124e+02
                                  Total O  = 5.550622e+01

----------------------------Distribution of species----------------------------

                                               Log       Log       Log    mole V
   Species          Molality    Activity  Molality  Activity     Gamma   cm³/mol

   OH-             1.777e-06   1.307e-06    -5.750    -5.884    -0.133     -3.63
   H+              9.494e-09   7.706e-09    -8.023    -8.113    -0.091      0.00
   H2O             5.551e+01   9.952e-01     1.744    -0.002     0.000     18.07
F             1.400e-01
   F-              1.400e-01   1.029e-01    -0.854    -0.987    -0.133     -1.09
   NaF             4.286e-05   4.571e-05    -4.368    -4.340     0.028      7.60
   HF              1.152e-06   1.190e-06    -5.939    -5.925     0.014     12.50
   HF2-            6.158e-07   4.699e-07    -6.211    -6.328    -0.117     22.38
H(0)          4.651e-17
   H2              2.326e-17   2.406e-17   -16.633   -16.619     0.015     14.99
Na            1.400e-01
   Na+             1.400e-01   1.072e-01    -0.854    -0.970    -0.116     -1.02
   NaF             4.286e-05   4.571e-05    -4.368    -4.340     0.028      7.60
O(0)          0.000e+00
   O2              0.000e+00   0.000e+00   -59.143   -59.129     0.014     30.40

------------------------------Saturation indices-------------------------------

  Phase               SI** log IAP   log K(298 K,   1 atm)

  H2(g)           -13.52    -16.62   -3.10  H2
  H2O(g)           -1.50     -0.00    1.50  H2O
  O2(g)           -56.24    -59.13   -2.89  O2

**For a gas, SI = log10(fugacity). Fugacity = pressure * phi / 1 atm.
  For ideal gases, phi = 1.

Reaction step 14.

Using solution 1.	
Using temperature 1.	
Using pressure 1.	
Using reaction 1.	

Reaction 1.	

	  1.585e-01 moles of the following reaction have been added:

	                 Relative
	Reactant            moles

	NaF                  1.00000

	                 Relative
	Element             moles
	F                    1.00000
	Na                   1.00000

-----------------------------Solution composition------------------------------

	Elements           Molality       Moles

	F                 1.585e-01   1.585e-01
	Na                1.585e-01   1.585e-01

----------------------------Description of solution----------------------------

                                       pH  =   8.143      Charge balance
                                       pe  =  -1.152      Adjusted to redox equilibrium
      Specific Conductance (µS/cm,  25°C)  = 13155
                          Density (g/cm³)  =   1.00400
                               Volume (L)  =   1.00264
                        Viscosity (mPa s)  =   0.92564
                        Activity of water  =   0.995
                 Ionic strength (mol/kgw)  =   1.584e-01
                       Mass of water (kg)  =   1.000e+00
                 Total alkalinity (eq/kg)  =  -7.955e-13
                         Temperature (°C)  =  25.00
                  Electrical balance (eq)  =  -9.446e-11
 Percent error, 100*(Cat-|An|)/(Cat+|An|)  =  -0.00
                               Iterations  =   9
                                  Total H  = 1.110124e+02
                                  Total O  = 5.550622e+01

----------------------------Distribution of species----------------------------

                                               Log       Log       Log    mole V
   Species          Molality    Activity  Molality  Activity     Gamma   cm³/mol

   OH-             1.928e-06   1.399e-06    -5.715    -5.854    -0.139     -3.59
   H+              8.920e-09   7.196e-09    -8.050    -8.143    -0.093      0.00
   H2O             5.551e+01   9.946e-01     1.744    -0.002     0.000     18.07
F             1.585e-01
   F-              1.584e-01   1.149e-01    -0.800    -0.940    -0.139     -1.04
   NaF             5.324e-05   5.727e-05    -4.274    -4.242     0.032      7.60
   HF              1.196e-06   1.240e-06    -5.922    -5.906     0.016     12.50
   HF2-            7.228e-07   5.471e-07    -6.141    -6.262    -0.121     22.41
H(0)          1.421e-17
   H2              7.105e-18   7.383e-18   -17.148   -17.132     0.017     14.99
Na            1.585e-01
   Na+             1.584e-01   1.203e-01    -0.800    -0.920    -0.119     -0.99
   NaF             5.324e-05   5.727e-05    -4.274    -4.242     0.032      7.60
O(0)          0.000e+00
   O2              0.000e+00   0.000e+00   -58.120   -58.104     0.016     30.40

------------------------------Saturation indices-------------------------------

  Phase               SI** log IAP   log K(298 K,   1 atm)

  H2(g)           -14.03    -17.13   -3.10  H2
  H2O(g)           -1.51     -0.00    1.50  H2O
  O2(g)           -55.21    -58.10   -2.89  O2

**For a gas, SI = log10(fugacity). Fugacity = pressure * phi / 1 atm.
  For ideal gases, phi = 1.

Reaction step 15.

Using solution 1.	
Using temperature 1.	
Using pressure 1.	
Using reaction 1.	

Reaction 1.	

	  1.804e-01 moles of the following reaction have been added:

	                 Relative
	Reactant            moles

	NaF                  1.00000

	                 Relative
	Element             moles
	F                    1.00000
	Na                   1.00000

-----------------------------Solution composition------------------------------

	Elements           Molality       Moles

	F                 1.804e-01   1.804e-01
	Na                1.804e-01   1.804e-01

----------------------------Description of solution----------------------------

                                       pH  =   8.175      Charge balance
                                       pe  =  -1.331      Adjusted to redox equilibrium
      Specific Conductance (µS/cm,  25°C)  = 14810
                          Density (g/cm³)  =   1.00494
                               Volume (L)  =   1.00262
                        Viscosity (mPa s)  =   0.93017
                        Activity of water  =   0.994
                 Ionic strength (mol/kgw)  =   1.803e-01
                       Mass of water (kg)  =   1.000e+00
                 Total alkalinity (eq/kg)  =  -3.284e-11
                         Temperature (°C)  =  25.00
                  Electrical balance (eq)  =  -1.193e-09
 Percent error, 100*(Cat-|An|)/(Cat+|An|)  =  -0.00
                               Iterations  =  11
                                  Total H  = 1.110124e+02
                                  Total O  = 5.550622e+01

----------------------------Distribution of species----------------------------

                                               Log       Log       Log    mole V
   Species          Molality    Activity  Molality  Activity     Gamma   cm³/mol

   OH-             2.102e-06   1.504e-06    -5.677    -5.823    -0.146     -3.54
   H+              8.345e-09   6.690e-09    -8.079    -8.175    -0.096      0.00
   H2O             5.551e+01   9.939e-01     1.744    -0.003     0.000     18.07
F             1.804e-01
   F-              1.803e-01   1.290e-01    -0.744    -0.890    -0.146     -0.98
   NaF             6.672e-05   7.250e-05    -4.176    -4.140     0.036      7.60
   HF              1.241e-06   1.294e-06    -5.906    -5.888     0.018     12.50
   HF2-            8.527e-07   6.403e-07    -6.069    -6.194    -0.124     22.43
H(0)          2.785e-17
   H2              1.393e-17   1.455e-17   -16.856   -16.837     0.019     14.99
Na            1.804e-01
   Na+             1.803e-01   1.358e-01    -0.744    -0.867    -0.123     -0.96
   NaF             6.672e-05   7.250e-05    -4.176    -4.140     0.036      7.60
O(0)          0.000e+00
   O2              0.000e+00   0.000e+00   -58.712   -58.693     0.018     30.40

------------------------------Saturation indices-------------------------------

  Phase               SI** log IAP   log K(298 K,   1 atm)

  H2(g)           -13.74    -16.84   -3.10  H2
  H2O(g)           -1.51     -0.00    1.50  H2O
  O2(g)           -55.80    -58.69   -2.89  O2

**For a gas, SI = log10(fugacity). Fugacity = pressure * phi / 1 atm.
  For ideal gases, phi = 1.

Reaction step 16.

Using solution 1.	
Using temperature 1.	
Using pressure 1.	
Using reaction 1.	

Reaction 1.	

	  1.831e-01 moles of the following reaction have been added:

	                 Relative
	Reactant            moles

	NaF                  1.00000

	                 Relative
	Element             moles
	F                    1.00000
	Na                   1.00000

-----------------------------Solution composition------------------------------

	Elements           Molality       Moles

	F                 1.831e-01   1.831e-01
	Na                1.831e-01   1.831e-01

----------------------------Description of solution----------------------------

                                       pH  =   8.178      Charge balance
                                       pe  =  -1.399      Adjusted to redox equilibrium
      Specific Conductance (µS/cm,  25°C)  = 15012
                          Density (g/cm³)  =   1.00506
                               Volume (L)  =   1.00261
                        Viscosity (mPa s)  =   0.93073
                        Activity of water  =   0.994
                 Ionic strength (mol/kgw)  =   1.830e-01
                       Mass of water (kg)  =   1.000e+00
                 Total alkalinity (eq/kg)  =  -5.952e-18
                         Temperature (°C)  =  25.00
                  Electrical balance (eq)  =  -6.492e-14
 Percent error, 100*(Cat-|An|)/(Cat+|An|)  =  -0.00
                               Iterations  =  12
                                  Total H  = 1.110124e+02
                                  Total O  = 5.550622e+01

----------------------------Distribution of species----------------------------

                                               Log       Log       Log    mole V
   Species          Molality    Activity  Molality  Activity     Gamma   cm³/mol

   OH-             2.124e-06   1.516e-06    -5.673    -5.819    -0.146     -3.54
   H+              8.280e-09   6.633e-09    -8.082    -8.178    -0.096      0.00
   H2O             5.551e+01   9.938e-01     1.744    -0.003     0.000     18.07
F             1.831e-01
   F-              1.830e-01   1.307e-01    -0.738    -0.884    -0.146     -0.97
   NaF             6.847e-05   7.449e-05    -4.164    -4.128     0.037      7.60
   HF              1.246e-06   1.300e-06    -5.904    -5.886     0.018     12.50
   HF2-            8.690e-07   6.519e-07    -6.061    -6.186    -0.125     22.43
H(0)          3.744e-17
   H2              1.872e-17   1.957e-17   -16.728   -16.708     0.019     14.99
Na            1.831e-01
   Na+             1.830e-01   1.377e-01    -0.737    -0.861    -0.124     -0.96
   NaF             6.847e-05   7.449e-05    -4.164    -4.128     0.037      7.60
O(0)          0.000e+00
   O2              0.000e+00   0.000e+00   -58.969   -58.951     0.018     30.40

------------------------------Saturation indices-------------------------------

  Phase               SI** log IAP   log K(298 K,   1 atm)

  H2(g)           -13.61    -16.71   -3.10  H2
  H2O(g)           -1.51     -0.00    1.50  H2O
  O2(g)           -56.06    -58.95   -2.89  O2

**For a gas, SI = log10(fugacity). Fugacity = pressure * phi / 1 atm.
  For ideal gases, phi = 1.

Reaction step 17.

Using solution 1.	
Using temperature 1.	
Using pressure 1.	
Using reaction 1.	

Reaction 1.	

	  2.012e-01 moles of the following reaction have been added:

	                 Relative
	Reactant            moles

	NaF                  1.00000

	                 Relative
	Element             moles
	F                    1.00000
	Na                   1.00000

-----------------------------Solution composition------------------------------

	Elements           Molality       Moles

	F                 2.012e-01   2.012e-01
	Na                2.012e-01   2.012e-01

----------------------------Description of solution----------------------------

                                       pH  =   8.202      Charge balance
                                       pe  =  -1.460      Adjusted to redox equilibrium
      Specific Conductance (µS/cm,  25°C)  = 16358
                          Density (g/cm³)  =   1.00584
                               Volume (L)  =   1.00259
                        Viscosity (mPa s)  =   0.93447
                        Activity of water  =   0.993
                 Ionic strength (mol/kgw)  =   2.011e-01
                       Mass of water (kg)  =   1.000e+00
                 Total alkalinity (eq/kg)  =  -4.876e-13
                         Temperature (°C)  =  25.00
                  Electrical balance (eq)  =  -7.469e-11
 Percent error, 100*(Cat-|An|)/(Cat+|An|)  =  -0.00
                               Iterations  =  12
                                  Total H  = 1.110124e+02
                                  Total O  = 5.550622e+01

----------------------------Distribution of species----------------------------

                                               Log       Log       Log    mole V
   Species          Molality    Activity  Molality  Activity     Gamma   cm³/mol

   OH-             2.264e-06   1.600e-06    -5.645    -5.796    -0.151     -3.50
   H+              7.881e-09   6.284e-09    -8.103    -8.202    -0.098      0.00
   H2O             5.551e+01   9.932e-01     1.744    -0.003     0.000     18.07
F             2.012e-01
   F-              2.011e-01   1.421e-01    -0.697    -0.847    -0.151     -0.92
   NaF             8.062e-05   8.844e-05    -4.094    -4.053     0.040      7.60
   HF              1.278e-06   1.339e-06    -5.893    -5.873     0.020     12.50
   HF2-            9.782e-07   7.299e-07    -6.010    -6.137    -0.127     22.45
H(0)          4.423e-17
   H2              2.212e-17   2.322e-17   -16.655   -16.634     0.021     14.99
Na            2.012e-01
   Na+             2.011e-01   1.503e-01    -0.697    -0.823    -0.126     -0.93
   NaF             8.062e-05   8.844e-05    -4.094    -4.053     0.040      7.60
O(0)          0.000e+00
   O2              0.000e+00   0.000e+00   -59.120   -59.100     0.020     30.40

------------------------------Saturation indices-------------------------------

  Phase               SI** log IAP   log K(298 K,   1 atm)

  H2(g)           -13.53    -16.63   -3.10  H2
  H2O(g)           -1.51     -0.00    1.50  H2O
  O2(g)           -56.21    -59.10   -2.89  O2

**For a gas, SI = log10(fugacity). Fugacity = pressure * phi / 1 atm.
  For ideal gases, phi = 1.

Reaction step 18.

Using solution 1.	
Using temperature 1.	
Using pressure 1.	
Using reaction 1.	

Reaction 1.	

	  2.066e-01 moles of the following reaction have been added:

	                 Relative
	Reactant            moles

	NaF                  1.00000

	                 Relative
	Element             moles
	F                    1.00000
	Na                   1.00000

-----------------------------Solution composition------------------------------

	Elements           Molality       Moles

	F                 2.066e-01   2.066e-01
	Na                2.066e-01   2.066e-01

----------------------------Description of solution----------------------------

                                       pH  =   8.208      Charge balance
                                       pe  =  -1.516      Adjusted to redox equilibrium
      Specific Conductance (µS/cm,  25°C)  = 16753
                          Density (g/cm³)  =   1.00607
                               Volume (L)  =   1.00259
                        Viscosity (mPa s)  =   0.93558
                        Activity of water  =   0.993
                 Ionic strength (mol/kgw)  =   2.065e-01
                       Mass of water (kg)  =   1.000e+00
                 Total alkalinity (eq/kg)  =  -8.297e-14
                         Temperature (°C)  =  25.00
                  Electrical balance (eq)  =  -2.272e-11
 Percent error, 100*(Cat-|An|)/(Cat+|An|)  =  -0.00
                               Iterations  =  12
                                  Total H  = 1.110124e+02
                                  Total O  = 5.550622e+01

----------------------------Distribution of species----------------------------

                                               Log       Log       Log    mole V
   Species          Molality    Activity  Molality  Activity     Gamma   cm³/mol

   OH-             2.306e-06   1.624e-06    -5.637    -5.789    -0.152     -3.48
   H+              7.772e-09   6.189e-09    -8.109    -8.208    -0.099      0.00
   H2O             5.551e+01   9.930e-01     1.744    -0.003     0.000     18.07
F             2.066e-01
   F-              2.065e-01   1.454e-01    -0.685    -0.837    -0.152     -0.91
   NaF             8.437e-05   9.279e-05    -4.074    -4.033     0.041      7.60
   HF              1.287e-06   1.350e-06    -5.890    -5.870     0.021     12.50
   HF2-            1.011e-06   7.532e-07    -5.995    -6.123    -0.128     22.46
H(0)          5.555e-17
   H2              2.778e-17   2.920e-17   -16.556   -16.535     0.022     14.99
Na            2.066e-01
   Na+             2.065e-01   1.541e-01    -0.685    -0.812    -0.127     -0.92
   NaF             8.437e-05   9.279e-05    -4.074    -4.033     0.041      7.60
O(0)          0.000e+00
   O2              0.000e+00   0.000e+00   -59.320   -59.299     0.021     30.40

------------------------------Saturation indices-------------------------------

  Phase               SI** log IAP   log K(298 K,   1 atm)

  H2(g)           -13.44    -16.53   -3.10  H2
  H2O(g)           -1.51     -0.00    1.50  H2O
  O2(g)           -56.41    -59.30   -2.89  O2

**For a gas, SI = log10(fugacity). Fugacity = pressure * phi / 1 atm.
  For ideal gases, phi = 1.

Reaction step 19.

Using solution 1.	
Using temperature 1.	
Using pressure 1.	
Using reaction 1.	

Reaction 1.	

	  2.201e-01 moles of the following reaction have been added:

	                 Relative
	Reactant            moles

	NaF                  1.00000

	                 Relative
	Element             moles
	F                    1.00000
	Na                   1.00000

-----------------------------Solution composition------------------------------

	Elements           Molality       Moles

	F                 2.201e-01   2.201e-01
	Na                2.201e-01   2.201e-01

----------------------------Description of solution----------------------------

                                       pH  =   8.224      Charge balance
                                       pe  =  -1.602      Adjusted to redox equilibrium
      Specific Conductance (µS/cm,  25°C)  = 17745
                          Density (g/cm³)  =   1.00665
                               Volume (L)  =   1.00257
                        Viscosity (mPa s)  =   0.93837
                        Activity of water  =   0.993
                 Ionic strength (mol/kgw)  =   2.200e-01
                       Mass of water (kg)  =   1.000e+00
                 Total alkalinity (eq/kg)  =  -3.729e-13
                         Temperature (°C)  =  25.00
                  Electrical balance (eq)  =  -6.459e-11
 Percent error, 100*(Cat-|An|)/(Cat+|An|)  =  -0.00
                               Iterations  =  16
                                  Total H  = 1.110124e+02
                                  Total O  = 5.550622e+01

----------------------------Distribution of species----------------------------

                                               Log       Log       Log    mole V
   Species          Molality    Activity  Molality  Activity     Gamma   cm³/mol

   OH-             2.409e-06   1.684e-06    -5.618    -5.774    -0.155     -3.46
   H+              7.513e-09   5.965e-09    -8.124    -8.224    -0.100      0.00
   H2O             5.551e+01   9.925e-01     1.744    -0.003     0.000     18.07
F             2.201e-01
   F-              2.200e-01   1.538e-01    -0.658    -0.813    -0.155     -0.87
   NaF             9.411e-05   1.041e-04    -4.026    -3.982     0.044      7.60
   HF              1.308e-06   1.376e-06    -5.883    -5.861     0.022     12.50
   HF2-            1.093e-06   8.121e-07    -5.961    -6.090    -0.129     22.47
H(0)          7.650e-17
   H2              3.825e-17   4.034e-17   -16.417   -16.394     0.023     14.99
Na            2.201e-01
   Na+             2.200e-01   1.635e-01    -0.658    -0.786    -0.129     -0.91
   NaF             9.411e-05   1.041e-04    -4.026    -3.982     0.044      7.60
O(0)          0.000e+00
   O2              0.000e+00   0.000e+00   -59.603   -59.581     0.022     30.40

------------------------------Saturation indices-------------------------------

  Phase               SI** log IAP   log K(298 K,   1 atm)

  H2(g)           -13.29    -16.39   -3.10  H2
  H2O(g)           -1.51     -0.00    1.50  H2O
  O2(g)           -56.69    -59.58   -2.89  O2

**For a gas, SI = log10(fugacity). Fugacity = pressure * phi / 1 atm.
  For ideal gases, phi = 1.

Reaction step 20.

Using solution 1.	
Using temperature 1.	
Using pressure 1.	
Using reaction 1.	

Reaction 1.	

	  2.313e-01 moles of the following reaction have been added:

	                 Relative
	Reactant            moles

	NaF                  1.00000

	                 Relative
	Element             moles
	F                    1.00000
	Na                   1.00000

-----------------------------Solution composition------------------------------

	Elements           Molality       Moles

	F                 2.313e-01   2.313e-01
	Na                2.313e-01   2.313e-01

----------------------------Description of solution----------------------------

                                       pH  =   8.237      Charge balance
                                       pe  =  -1.236      Adjusted to redox equilibrium
      Specific Conductance (µS/cm,  25°C)  = 18556
                          Density (g/cm³)  =   1.00713
                               Volume (L)  =   1.00256
                        Viscosity (mPa s)  =   0.94067
                        Activity of water  =   0.992
                 Ionic strength (mol/kgw)  =   2.312e-01
                       Mass of water (kg)  =   1.000e+00
                 Total alkalinity (eq/kg)  =  -2.640e-11
                         Temperature (°C)  =  25.00
                  Electrical balance (eq)  =  -1.142e-09
 Percent error, 100*(Cat-|An|)/(Cat+|An|)  =  -0.00
                               Iterations  =  23
                                  Total H  = 1.110124e+02
                                  Total O  = 5.550622e+01

----------------------------Distribution of species----------------------------

                                               Log       Log       Log    mole V
   Species          Molality    Activity  Molality  Activity     Gamma   cm³/mol

   OH-             2.493e-06   1.733e-06    -5.603    -5.761    -0.158     -3.43
   H+              7.316e-09   5.794e-09    -8.136    -8.237    -0.101      0.00
   H2O             5.551e+01   9.921e-01     1.744    -0.003     0.000     18.07
F             2.313e-01
   F-              2.312e-01   1.607e-01    -0.636    -0.794    -0.158     -0.85
   NaF             1.025e-04   1.140e-04    -3.989    -3.943     0.046      7.60
   HF              1.324e-06   1.396e-06    -5.878    -5.855     0.023     12.50
   HF2-            1.162e-06   8.609e-07    -5.935    -6.065    -0.130     22.48
H(0)          1.330e-17
   H2              6.652e-18   7.034e-18   -17.177   -17.153     0.024     14.99
Na            2.313e-01
   Na+             2.312e-01   1.713e-01    -0.636    -0.766    -0.130     -0.89
   NaF             1.025e-04   1.140e-04    -3.989    -3.943     0.046      7.60
O(0)          0.000e+00
   O2              0.000e+00   0.000e+00   -58.087   -58.064     0.023     30.40

------------------------------Saturation indices-------------------------------

  Phase               SI** log IAP   log K(298 K,   1 atm)

  H2(g)           -14.05    -17.15   -3.10  H2
  H2O(g)           -1.51     -0.00    1.50  H2O
  O2(g)           -55.17    -58.06   -2.89  O2

**For a gas, SI = log10(fugacity). Fugacity = pressure * phi / 1 atm.
  For ideal gases, phi = 1.

Reaction step 21.

Using solution 1.	
Using temperature 1.	
Using pressure 1.	
Using reaction 1.	

Reaction 1.	

	  2.685e-01 moles of the following reaction have been added:

	                 Relative
	Reactant            moles

	NaF                  1.00000

	                 Relative
	Element             moles
	F                    1.00000
	Na                   1.00000

-----------------------------Solution composition------------------------------

	Elements           Molality       Moles

	F                 2.685e-01   2.685e-01
	Na                2.685e-01   2.685e-01

----------------------------Description of solution----------------------------

                                       pH  =   8.275      Charge balance
                                       pe  =  -1.474      Adjusted to redox equilibrium
      Specific Conductance (µS/cm,  25°C)  = 21218
                          Density (g/cm³)  =   1.00871
                               Volume (L)  =   1.00254
                        Viscosity (mPa s)  =   0.94835
                        Activity of water  =   0.991
                 Ionic strength (mol/kgw)  =   2.683e-01
                       Mass of water (kg)  =   1.000e+00
                 Total alkalinity (eq/kg)  =  -7.953e-11
                         Temperature (°C)  =  25.00
                  Electrical balance (eq)  =  -2.528e-09
 Percent error, 100*(Cat-|An|)/(Cat+|An|)  =  -0.00
                               Iterations  =  12
                                  Total H  = 1.110124e+02
                                  Total O  = 5.550622e+01

----------------------------Distribution of species----------------------------

                                               Log       Log       Log    mole V
   Species          Molality    Activity  Molality  Activity     Gamma   cm³/mol

   OH-             2.769e-06   1.891e-06    -5.558    -5.723    -0.166     -3.36
   H+              6.744e-09   5.303e-09    -8.171    -8.275    -0.104      0.00
   H2O             5.551e+01   9.909e-01     1.744    -0.004     0.000     18.07
F             2.685e-01
   F-              2.683e-01   1.833e-01    -0.571    -0.737    -0.166     -0.75
   NaF             1.322e-04   1.496e-04    -3.879    -3.825     0.054      7.60
   HF2-            1.392e-06   1.025e-06    -5.856    -5.989    -0.133     22.52
   HF              1.370e-06   1.458e-06    -5.863    -5.836     0.027     12.50
H(0)          3.304e-17
   H2              1.652e-17   1.763e-17   -16.782   -16.754     0.028     14.99
Na            2.685e-01
   Na+             2.683e-01   1.971e-01    -0.571    -0.705    -0.134     -0.85
   NaF             1.322e-04   1.496e-04    -3.879    -3.825     0.054      7.60
O(0)          0.000e+00
   O2              0.000e+00   0.000e+00   -58.890   -58.863     0.027     30.40

------------------------------Saturation indices-------------------------------

  Phase               SI** log IAP   log K(298 K,   1 atm)

  H2(g)           -13.65    -16.75   -3.10  H2
  H2O(g)           -1.51     -0.00    1.50  H2O
  O2(g)           -55.97    -58.86   -2.89  O2

**For a gas, SI = log10(fugacity). Fugacity = pressure * phi / 1 atm.
  For ideal gases, phi = 1.

Reaction step 22.

Using solution 1.	
Using temperature 1.	
Using pressure 1.	
Using reaction 1.	

Reaction 1.	

	  2.932e-01 moles of the following reaction have been added:

	                 Relative
	Reactant            moles

	NaF                  1.00000

	                 Relative
	Element             moles
	F                    1.00000
	Na                   1.00000

-----------------------------Solution composition------------------------------

	Elements           Molality       Moles

	F                 2.932e-01   2.932e-01
	Na                2.932e-01   2.932e-01

----------------------------Description of solution----------------------------

                                       pH  =   8.299      Charge balance
                                       pe  =  -1.442      Adjusted to redox equilibrium
      Specific Conductance (µS/cm,  25°C)  = 22953
                          Density (g/cm³)  =   1.00976
                               Volume (L)  =   1.00253
                        Viscosity (mPa s)  =   0.95346
                        Activity of water  =   0.990
                 Ionic strength (mol/kgw)  =   2.930e-01
                       Mass of water (kg)  =   1.000e+00
                 Total alkalinity (eq/kg)  =  -6.372e-14
                         Temperature (°C)  =  25.00
                  Electrical balance (eq)  =  -2.171e-11
 Percent error, 100*(Cat-|An|)/(Cat+|An|)  =  -0.00
                               Iterations  =  19
                                  Total H  = 1.110124e+02
                                  Total O  = 5.550622e+01

----------------------------Distribution of species----------------------------

                                               Log       Log       Log    mole V
   Species          Molality    Activity  Molality  Activity     Gamma   cm³/mol

   OH-             2.948e-06   1.993e-06    -5.530    -5.701    -0.170     -3.31
   H+              6.422e-09   5.029e-09    -8.192    -8.299    -0.106      0.00
   H2O             5.551e+01   9.900e-01     1.744    -0.004     0.000     18.07
F             2.932e-01
   F-              2.930e-01   1.980e-01    -0.533    -0.703    -0.170     -0.69
   NaF             1.535e-04   1.756e-04    -3.814    -3.755     0.059      7.60
   HF2-            1.546e-06   1.135e-06    -5.811    -5.945    -0.134     22.54
   HF              1.396e-06   1.493e-06    -5.855    -5.826     0.029     12.50
H(0)          2.557e-17
   H2              1.278e-17   1.372e-17   -16.893   -16.863     0.031     14.99
Na            2.932e-01
   Na+             2.930e-01   2.142e-01    -0.533    -0.669    -0.136     -0.82
   NaF             1.535e-04   1.756e-04    -3.814    -3.755     0.059      7.60
O(0)          0.000e+00
   O2              0.000e+00   0.000e+00   -58.675   -58.646     0.029     30.40

------------------------------Saturation indices-------------------------------

  Phase               SI** log IAP   log K(298 K,   1 atm)

  H2(g)           -13.76    -16.86   -3.10  H2
  H2O(g)           -1.51     -0.00    1.50  H2O
  O2(g)           -55.75    -58.65   -2.89  O2

**For a gas, SI = log10(fugacity). Fugacity = pressure * phi / 1 atm.
  For ideal gases, phi = 1.

Reaction step 23.

Using solution 1.	
Using temperature 1.	
Using pressure 1.	
Using reaction 1.	

Reaction 1.	

	  2.963e-01 moles of the following reaction have been added:

	                 Relative
	Reactant            moles

	NaF                  1.00000

	                 Relative
	Element             moles
	F                    1.00000
	Na                   1.00000

-----------------------------Solution composition------------------------------

	Elements           Molality       Moles

	F                 2.963e-01   2.963e-01
	Na                2.963e-01   2.963e-01

----------------------------Description of solution----------------------------

                                       pH  =   8.301      Charge balance
                                       pe  =  -1.577      Adjusted to redox equilibrium
      Specific Conductance (µS/cm,  25°C)  = 23175
                          Density (g/cm³)  =   1.00989
                               Volume (L)  =   1.00252
                        Viscosity (mPa s)  =   0.95412
                        Activity of water  =   0.990
                 Ionic strength (mol/kgw)  =   2.962e-01
                       Mass of water (kg)  =   1.000e+00
                 Total alkalinity (eq/kg)  =  -9.280e-17
                         Temperature (°C)  =  25.00
                  Electrical balance (eq)  =  -1.994e-13
 Percent error, 100*(Cat-|An|)/(Cat+|An|)  =  -0.00
                               Iterations  =  10
                                  Total H  = 1.110124e+02
                                  Total O  = 5.550622e+01

----------------------------Distribution of species----------------------------

                                               Log       Log       Log    mole V
   Species          Molality    Activity  Molality  Activity     Gamma   cm³/mol

   OH-             2.971e-06   2.005e-06    -5.527    -5.698    -0.171     -3.30
   H+              6.383e-09   4.996e-09    -8.195    -8.301    -0.106      0.00
   H2O             5.551e+01   9.899e-01     1.744    -0.004     0.000     18.07
F             2.963e-01
   F-              2.962e-01   1.999e-01    -0.528    -0.699    -0.171     -0.68
   NaF             1.563e-04   1.792e-04    -3.806    -3.747     0.059      7.60
   HF2-            1.566e-06   1.149e-06    -5.805    -5.940    -0.134     22.54
   HF              1.399e-06   1.498e-06    -5.854    -5.825     0.030     12.50
H(0)          4.685e-17
   H2              2.343e-17   2.516e-17   -16.630   -16.599     0.031     14.99
Na            2.963e-01
   Na+             2.962e-01   2.164e-01    -0.528    -0.665    -0.136     -0.82
   NaF             1.563e-04   1.792e-04    -3.806    -3.747     0.059      7.60
O(0)          0.000e+00
   O2              0.000e+00   0.000e+00   -59.203   -59.173     0.030     30.40

------------------------------Saturation indices-------------------------------

  Phase               SI** log IAP   log K(298 K,   1 atm)

  H2(g)           -13.50    -16.60   -3.10  H2
  H2O(g)           -1.51     -0.00    1.50  H2O
  O2(g)           -56.28    -59.17   -2.89  O2

**For a gas, SI = log10(fugacity). Fugacity = pressure * phi / 1 atm.
  For ideal gases, phi = 1.

Reaction step 24.

Using solution 1.	
Using temperature 1.	
Using pressure 1.	
Using reaction 1.	

Reaction 1.	

	  3.003e-01 moles of the following reaction have been added:

	                 Relative
	Reactant            moles

	NaF                  1.00000

	                 Relative
	Element             moles
	F                    1.00000
	Na                   1.00000

-----------------------------Solution composition------------------------------

	Elements           Molality       Moles

	F                 3.003e-01   3.003e-01
	Na                3.003e-01   3.003e-01

----------------------------Description of solution----------------------------

                                       pH  =   8.305      Charge balance
                                       pe  =  -1.603      Adjusted to redox equilibrium
      Specific Conductance (µS/cm,  25°C)  = 23453
                          Density (g/cm³)  =   1.01006
                               Volume (L)  =   1.00252
                        Viscosity (mPa s)  =   0.95495
                        Activity of water  =   0.990
                 Ionic strength (mol/kgw)  =   3.002e-01
                       Mass of water (kg)  =   1.000e+00
                 Total alkalinity (eq/kg)  =   4.497e-18
                         Temperature (°C)  =  25.00
                  Electrical balance (eq)  =  -1.994e-14
 Percent error, 100*(Cat-|An|)/(Cat+|An|)  =  -0.00
                               Iterations  =  11
[...]

Reaction step 7.

Using solution 1.	
Using temperature 1.	
Using pressure 1.	
Using reaction 1.	

Reaction 1.	

	  5.058e-02 moles of the following reaction have been added:

	                 Relative
	Reactant            moles

	NaF                  1.00000

	                 Relative
	Element             moles
	F                    1.00000
	Na                   1.00000

-----------------------------Solution composition------------------------------

	Elements           Molality       Moles

	F                 5.058e-02   5.058e-02
	Na                5.058e-02   5.058e-02

----------------------------Description of solution----------------------------

                                       pH  =   7.496      Charge balance
                                       pe  =   2.805      Adjusted to redox equilibrium
      Specific Conductance (µS/cm, 300°C)  = 21194
                          Density (g/cm³)  =   0.75533
                               Volume (L)  =   1.32673
                        Viscosity (mPa s)  =   0.09659 (solute contributions limited to 200 °C)
                        Activity of water  =   0.998
                 Ionic strength (mol/kgw)  =   4.377e-02
                       Mass of water (kg)  =   1.000e+00
                 Total alkalinity (eq/kg)  =  -1.788e-12
                         Temperature (°C)  = 299.55
                           Pressure (atm)  = 299.06
                  Electrical balance (eq)  =   1.336e-12
 Percent error, 100*(Cat-|An|)/(Cat+|An|)  =   0.00
                               Iterations  =   7
                                  Total H  = 1.110124e+02
                                  Total O  = 5.550622e+01

----------------------------Distribution of species----------------------------

                                               Log       Log       Log    mole V
   Species          Molality    Activity  Molality  Activity     Gamma   cm³/mol

   OH-             4.072e-04   2.666e-04    -3.390    -3.574    -0.184   -107.55
   H+              4.371e-08   3.194e-08    -7.359    -7.496    -0.136      0.00
   H2O             5.551e+01   9.984e-01     1.744    -0.001     0.000     23.98
F             5.058e-02
   F-              4.336e-02   2.839e-02    -1.363    -1.547    -0.184    -95.65
   NaF             6.808e-03   6.946e-03    -2.167    -2.158     0.009      7.84
   HF              4.037e-04   4.077e-04    -3.394    -3.390     0.004     15.09
   HF2-            3.500e-06   2.309e-06    -5.456    -5.637    -0.181    -43.85
H(0)          6.478e-25
   H2              3.239e-25   3.273e-25   -24.490   -24.485     0.005     41.58
Na            5.058e-02
   Na+             4.377e-02   2.934e-02    -1.359    -1.533    -0.174      1.84
   NaF             6.808e-03   6.946e-03    -2.167    -2.158     0.009      7.84
O(0)          1.453e-10
   O2              7.263e-11   7.336e-11   -10.139   -10.135     0.004     56.48

------------------------------Saturation indices-------------------------------

  Phase               SI** log IAP   log K(572 K, 299 atm)

  H2(g)           -22.13    -24.49   -2.35  H2
  H2O(g)            1.87     -0.00   -1.87  H2O
  O2(g)            -7.61    -10.13   -2.52  O2

**For a gas, SI = log10(fugacity). Fugacity = pressure * phi / 1 atm.
  For ideal gases, phi = 1.

Reaction step 8.

Using solution 1.	
Using temperature 1.	
Using pressure 1.	
Using reaction 1.	

Reaction 1.	

	  5.058e-02 moles of the following reaction have been added:

	                 Relative
	Reactant            moles

	NaF                  1.00000

	                 Relative
	Element             moles
	F                    1.00000
	Na                   1.00000

-----------------------------Solution composition------------------------------

	Elements           Molality       Moles

	F                 5.058e-02   5.058e-02
	Na                5.058e-02   5.058e-02

----------------------------Description of solution----------------------------

                                       pH  =   7.496      Charge balance
                                       pe  =   2.805      Adjusted to redox equilibrium
      Specific Conductance (µS/cm, 300°C)  = 21194
                          Density (g/cm³)  =   0.75533
                               Volume (L)  =   1.32673
                        Viscosity (mPa s)  =   0.09659 (solute contributions limited to 200 °C)
                        Activity of water  =   0.998
                 Ionic strength (mol/kgw)  =   4.377e-02
                       Mass of water (kg)  =   1.000e+00
                 Total alkalinity (eq/kg)  =  -1.788e-12
                         Temperature (°C)  = 299.55
                           Pressure (atm)  = 299.06
                  Electrical balance (eq)  =   1.336e-12
 Percent error, 100*(Cat-|An|)/(Cat+|An|)  =   0.00
                               Iterations  =   7
                                  Total H  = 1.110124e+02
                                  Total O  = 5.550622e+01

----------------------------Distribution of species----------------------------

                                               Log       Log       Log    mole V
   Species          Molality    Activity  Molality  Activity     Gamma   cm³/mol

   OH-             4.072e-04   2.666e-04    -3.390    -3.574    -0.184   -107.55
   H+              4.371e-08   3.194e-08    -7.359    -7.496    -0.136      0.00
   H2O             5.551e+01   9.984e-01     1.744    -0.001     0.000     23.98
F             5.058e-02
   F-              4.336e-02   2.839e-02    -1.363    -1.547    -0.184    -95.65
   NaF             6.808e-03   6.946e-03    -2.167    -2.158     0.009      7.84
   HF              4.037e-04   4.077e-04    -3.394    -3.390     0.004     15.09
   HF2-            3.500e-06   2.309e-06    -5.456    -5.637    -0.181    -43.85
H(0)          6.478e-25
   H2              3.239e-25   3.273e-25   -24.490   -24.485     0.005     41.58
Na            5.058e-02
   Na+             4.377e-02   2.934e-02    -1.359    -1.533    -0.174      1.84
   NaF             6.808e-03   6.946e-03    -2.167    -2.158     0.009      7.84
O(0)          1.453e-10
   O2              7.263e-11   7.336e-11   -10.139   -10.135     0.004     56.48

------------------------------Saturation indices-------------------------------

  Phase               SI** log IAP   log K(572 K, 299 atm)

  H2(g)           -22.13    -24.49   -2.35  H2
  H2O(g)            1.87     -0.00   -1.87  H2O
  O2(g)            -7.61    -10.13   -2.52  O2

**For a gas, SI = log10(fugacity). Fugacity = pressure * phi / 1 atm.
  For ideal gases, phi = 1.

Reaction step 9.

Using solution 1.	
Using temperature 1.	
Using pressure 1.	
Using reaction 1.	

Reaction 1.	

	  2.461e-01 moles of the following reaction have been added:

	                 Relative
	Reactant            moles

	NaF                  1.00000

	                 Relative
	Element             moles
	F                    1.00000
	Na                   1.00000

-----------------------------Solution composition------------------------------

	Elements           Molality       Moles

	F                 2.461e-01   2.461e-01
	Na                2.461e-01   2.461e-01

----------------------------Description of solution----------------------------

                                       pH  =   7.697      Charge balance
                                       pe  =   2.718      Adjusted to redox equilibrium
      Specific Conductance (µS/cm, 300°C)  = 75555
                          Density (g/cm³)  =   0.76795
                               Volume (L)  =   1.31562
                        Viscosity (mPa s)  =   0.10524 (solute contributions limited to 200 °C)
                        Activity of water  =   0.993
                 Ionic strength (mol/kgw)  =   1.784e-01
                       Mass of water (kg)  =   1.000e+00
                 Total alkalinity (eq/kg)  =  -2.999e-11
                         Temperature (°C)  = 299.55
                           Pressure (atm)  = 299.06
                  Electrical balance (eq)  =   3.698e-11
 Percent error, 100*(Cat-|An|)/(Cat+|An|)  =   0.00
                               Iterations  =   6
                                  Total H  = 1.110124e+02
                                  Total O  = 5.550622e+01

----------------------------Distribution of species----------------------------

                                               Log       Log       Log    mole V
   Species          Molality    Activity  Molality  Activity     Gamma   cm³/mol

   OH-             8.108e-04   4.038e-04    -3.091    -3.394    -0.303   -100.72
   H+              3.126e-08   2.008e-08    -7.505    -7.697    -0.192      0.00
   H2O             5.551e+01   9.928e-01     1.744    -0.003     0.000     23.97
F             2.461e-01
   F-              1.776e-01   8.843e-02    -0.751    -1.053    -0.303    -92.02
   NaF             6.770e-02   7.350e-02    -1.169    -1.134     0.036      7.84
   HF              7.842e-04   8.171e-04    -3.106    -3.088     0.018     15.09
   HF2-            2.662e-05   1.413e-05    -4.575    -4.850    -0.275    -37.17
H(0)          3.713e-25
   H2              1.857e-25   1.939e-25   -24.731   -24.713     0.019     41.58
Na            2.461e-01
   Na+             1.784e-01   9.563e-02    -0.749    -1.019    -0.271      4.73
   NaF             6.770e-02   7.350e-02    -1.169    -1.134     0.036      7.84
O(0)          3.970e-10
   O2              1.985e-10   2.068e-10    -9.702    -9.684     0.018     56.48

------------------------------Saturation indices-------------------------------

  Phase               SI** log IAP   log K(572 K, 299 atm)

  H2(g)           -22.36    -24.71   -2.35  H2
  H2O(g)            1.87     -0.00   -1.87  H2O
  O2(g)            -7.16     -9.68   -2.52  O2

**For a gas, SI = log10(fugacity). Fugacity = pressure * phi / 1 atm.
  For ideal gases, phi = 1.

Reaction step 10.

Using solution 1.	
Using temperature 1.	
Using pressure 1.	
Using reaction 1.	

Reaction 1.	

	  2.461e-01 moles of the following reaction have been added:

	                 Relative
	Reactant            moles

	NaF                  1.00000

	                 Relative
	Element             moles
	F                    1.00000
	Na                   1.00000

-----------------------------Solution composition------------------------------

	Elements           Molality       Moles

	F                 2.461e-01   2.461e-01
	Na                2.461e-01   2.461e-01

----------------------------Description of solution----------------------------

                                       pH  =   7.697      Charge balance
                                       pe  =   2.718      Adjusted to redox equilibrium
      Specific Conductance (µS/cm, 300°C)  = 75555
                          Density (g/cm³)  =   0.76795
                               Volume (L)  =   1.31562
                        Viscosity (mPa s)  =   0.10524 (solute contributions limited to 200 °C)
                        Activity of water  =   0.993
                 Ionic strength (mol/kgw)  =   1.784e-01
                       Mass of water (kg)  =   1.000e+00
                 Total alkalinity (eq/kg)  =  -2.999e-11
                         Temperature (°C)  = 299.55
                           Pressure (atm)  = 299.06
                  Electrical balance (eq)  =   3.698e-11
 Percent error, 100*(Cat-|An|)/(Cat+|An|)  =   0.00
                               Iterations  =   6
                                  Total H  = 1.110124e+02
                                  Total O  = 5.550622e+01

----------------------------Distribution of species----------------------------

                                               Log       Log       Log    mole V
   Species          Molality    Activity  Molality  Activity     Gamma   cm³/mol

   OH-             8.108e-04   4.038e-04    -3.091    -3.394    -0.303   -100.72
   H+              3.126e-08   2.008e-08    -7.505    -7.697    -0.192      0.00
   H2O             5.551e+01   9.928e-01     1.744    -0.003     0.000     23.97
F             2.461e-01
   F-              1.776e-01   8.843e-02    -0.751    -1.053    -0.303    -92.02
   NaF             6.770e-02   7.350e-02    -1.169    -1.134     0.036      7.84
   HF              7.842e-04   8.171e-04    -3.106    -3.088     0.018     15.09
   HF2-            2.662e-05   1.413e-05    -4.575    -4.850    -0.275    -37.17
H(0)          3.713e-25
   H2              1.857e-25   1.939e-25   -24.731   -24.713     0.019     41.58
Na            2.461e-01
   Na+             1.784e-01   9.563e-02    -0.749    -1.019    -0.271      4.73
   NaF             6.770e-02   7.350e-02    -1.169    -1.134     0.036      7.84
O(0)          3.970e-10
   O2              1.985e-10   2.068e-10    -9.702    -9.684     0.018     56.48

------------------------------Saturation indices-------------------------------

  Phase               SI** log IAP   log K(572 K, 299 atm)

  H2(g)           -22.36    -24.71   -2.35  H2
  H2O(g)            1.87     -0.00   -1.87  H2O
  O2(g)            -7.16     -9.68   -2.52  O2

**For a gas, SI = log10(fugacity). Fugacity = pressure * phi / 1 atm.
  For ideal gases, phi = 1.

Reaction step 11.

Using solution 1.	
Using temperature 1.	
Using pressure 1.	
Using reaction 1.	

Reaction 1.	

	  4.988e-01 moles of the following reaction have been added:

	                 Relative
	Reactant            moles

	NaF                  1.00000

	                 Relative
	Element             moles
	F                    1.00000
	Na                   1.00000

-----------------------------Solution composition------------------------------

	Elements           Molality       Moles

	F                 4.988e-01   4.988e-01
	Na                4.988e-01   4.988e-01

----------------------------Description of solution----------------------------

                                       pH  =   7.779      Charge balance
                                       pe  =   2.415      Adjusted to redox equilibrium
      Specific Conductance (µS/cm, 300°C)  = 123247
                          Density (g/cm³)  =   0.78241
                               Volume (L)  =   1.30487
                        Viscosity (mPa s)  =   0.11481 (solute contributions limited to 200 °C)
                        Activity of water  =   0.986
                 Ionic strength (mol/kgw)  =   3.261e-01
                       Mass of water (kg)  =   1.000e+00
                 Total alkalinity (eq/kg)  =  -1.942e-12
                         Temperature (°C)  = 299.55
                           Pressure (atm)  = 299.06
                  Electrical balance (eq)  =   1.107e-12
 Percent error, 100*(Cat-|An|)/(Cat+|An|)  =   0.00
                               Iterations  =   8
                                  Total H  = 1.110124e+02
                                  Total O  = 5.550622e+01

----------------------------Distribution of species----------------------------

                                               Log       Log       Log    mole V
   Species          Molality    Activity  Molality  Activity     Gamma   cm³/mol

   OH-             1.082e-03   4.693e-04    -2.966    -3.329    -0.363    -95.89
   H+              2.729e-08   1.664e-08    -7.564    -7.779    -0.215      0.00
   H2O             5.551e+01   9.860e-01     1.744    -0.006     0.000     23.97
F             4.988e-01
   F-              3.249e-01   1.410e-01    -0.488    -0.851    -0.363    -88.90
   NaF             1.727e-01   2.007e-01    -0.763    -0.697     0.065      7.84
   HF              1.022e-03   1.101e-03    -2.991    -2.958     0.033     15.09
   HF2-            6.002e-05   3.007e-05    -4.222    -4.522    -0.300    -32.50
H(0)          9.928e-25
   H2              4.964e-25   5.371e-25   -24.304   -24.270     0.034     41.58
Na            4.988e-01
   Na+             3.261e-01   1.592e-01    -0.487    -0.798    -0.311      6.12
   NaF             1.727e-01   2.007e-01    -0.763    -0.697     0.065      7.84
O(0)          4.930e-11
   O2              2.465e-11   2.657e-11   -10.608   -10.576     0.033     56.48

------------------------------Saturation indices-------------------------------

  Phase               SI** log IAP   log K(572 K, 299 atm)

  H2(g)           -21.92    -24.27   -2.35  H2
  H2O(g)            1.86     -0.01   -1.87  H2O
  O2(g)            -8.05    -10.58   -2.52  O2

**For a gas, SI = log10(fugacity). Fugacity = pressure * phi / 1 atm.
  For ideal gases, phi = 1.

Reaction step 12.

Using solution 1.	
Using temperature 1.	
Using pressure 1.	
Using reaction 1.	

Reaction 1.	

	  4.988e-01 moles of the following reaction have been added:

	                 Relative
	Reactant            moles

	NaF                  1.00000

	                 Relative
	Element             moles
	F                    1.00000
	Na                   1.00000

-----------------------------Solution composition------------------------------

	Elements           Molality       Moles

	F                 4.988e-01   4.988e-01
	Na                4.988e-01   4.988e-01

----------------------------Description of solution----------------------------

                                       pH  =   7.779      Charge balance
                                       pe  =   2.415      Adjusted to redox equilibrium
      Specific Conductance (µS/cm, 300°C)  = 123247
                          Density (g/cm³)  =   0.78241
                               Volume (L)  =   1.30487
                        Viscosity (mPa s)  =   0.11481 (solute contributions limited to 200 °C)
                        Activity of water  =   0.986
                 Ionic strength (mol/kgw)  =   3.261e-01
                       Mass of water (kg)  =   1.000e+00
                 Total alkalinity (eq/kg)  =  -1.942e-12
                         Temperature (°C)  = 299.55
                           Pressure (atm)  = 299.06
                  Electrical balance (eq)  =   1.107e-12
 Percent error, 100*(Cat-|An|)/(Cat+|An|)  =   0.00
                               Iterations  =   8
                                  Total H  = 1.110124e+02
                                  Total O  = 5.550622e+01

----------------------------Distribution of species----------------------------

                                               Log       Log       Log    mole V
   Species          Molality    Activity  Molality  Activity     Gamma   cm³/mol

   OH-             1.082e-03   4.693e-04    -2.966    -3.329    -0.363    -95.89
   H+              2.729e-08   1.664e-08    -7.564    -7.779    -0.215      0.00
   H2O             5.551e+01   9.860e-01     1.744    -0.006     0.000     23.97
F             4.988e-01
   F-              3.249e-01   1.410e-01    -0.488    -0.851    -0.363    -88.90
   NaF             1.727e-01   2.007e-01    -0.763    -0.697     0.065      7.84
   HF              1.022e-03   1.101e-03    -2.991    -2.958     0.033     15.09
   HF2-            6.002e-05   3.007e-05    -4.222    -4.522    -0.300    -32.50
H(0)          9.928e-25
   H2              4.964e-25   5.371e-25   -24.304   -24.270     0.034     41.58
Na            4.988e-01
   Na+             3.261e-01   1.592e-01    -0.487    -0.798    -0.311      6.12
   NaF             1.727e-01   2.007e-01    -0.763    -0.697     0.065      7.84
O(0)          4.930e-11
   O2              2.465e-11   2.657e-11   -10.608   -10.576     0.033     56.48

------------------------------Saturation indices-------------------------------

  Phase               SI** log IAP   log K(572 K, 299 atm)

  H2(g)           -21.92    -24.27   -2.35  H2
  H2O(g)            1.86     -0.01   -1.87  H2O
  O2(g)            -8.05    -10.58   -2.52  O2

**For a gas, SI = log10(fugacity). Fugacity = pressure * phi / 1 atm.
  For ideal gases, phi = 1.

------------------
End of simulation.
------------------

-------------------------------------
Reading input data for simulation 13.
-------------------------------------

