WARNING: Database file from DATABASE keyword is used; command line argument ignored.
   Input file: Vm_NaHCO3_sol
  Output file: Vm_NaHCO3_sol.out
Database file: ../database/pitzer.dat

------------------
Reading data base.
------------------

	SOLUTION_MASTER_SPECIES
	SOLUTION_SPECIES
	PHASES
	PITZER
	GAS_BINARY_PARAMETERS
	EXCHANGE_MASTER_SPECIES
	EXCHANGE_SPECIES
	SURFACE_MASTER_SPECIES
	SURFACE_SPECIES
	MEAN_GAMMAS
	END
------------------------------------
Reading input data for simulation 1.
------------------------------------

	DATABASE ../database/pitzer.dat
	SELECTED_OUTPUT 101
	    file                 Vm_NaHCO3_sol_101.sel
	USER_PUNCH 101
	    headings Mu SC
	    start
	10 PUNCH STR_F$(MU, 20, 12)
	20 PUNCH STR_F$(SC, 20, 10)
	    end
	SOLUTION 1
	 pH 7 charge
	END
-------------------------------------------
Beginning of initial solution calculations.
-------------------------------------------

Initial solution 1.	

-----------------------------Solution composition------------------------------

	Elements           Molality       Moles

	Pure water     

----------------------------Description of solution----------------------------

                                       pH  =   6.997      Charge balance
                                       pe  =   4.000    
      Specific Conductance (µS/cm,  25°C)  = 0
                          Density (g/cm³)  =   0.99704
                               Volume (L)  =   1.00297
                        Viscosity (mPa s)  =   0.89002
                        Activity of water  =   1.000
                 Ionic strength (mol/kgw)  =   1.006e-07
                       Mass of water (kg)  =   1.000e+00
                 Total alkalinity (eq/kg)  =   0.000e+00
                         Temperature (°C)  =  25.00
                  Electrical balance (eq)  =   0.000e+00
 Percent error, 100*(Cat-|An|)/(Cat+|An|)  =   0.00
                               Iterations  =   4
                         Gamma iterations  =   2
                      Osmotic coefficient  =   0.99988
                         Density of water  =   0.99704
                                  Total H  = 1.110124e+02
                                  Total O  = 5.550622e+01

----------------------------Distribution of species----------------------------

                                                    MacInnes  MacInnes
                                MacInnes       Log       Log       Log    mole V
   Species          Molality    Activity  Molality  Activity     Gamma   cm³/mol

   OH-             1.006e-07   1.006e-07    -6.997    -6.997    -0.000     -4.14
   H+              1.006e-07   1.006e-07    -6.997    -6.997    -0.000      0.00
   H2O             5.551e+01   1.000e+00     1.744    -0.000     0.000     18.07

------------------------------Saturation indices-------------------------------

  Phase               SI** log IAP   log K(298 K,   1 atm)

  H2O(g)           -1.50     -0.00    1.50  H2O

**For a gas, SI = log10(fugacity). Fugacity = pressure * phi / 1 atm.
  For ideal gases, phi = 1.

------------------
End of simulation.
------------------

------------------------------------
Reading input data for simulation 2.
------------------------------------

	USE solution 1
	REACTION_TEMPERATURE
	 0.000000
	REACTION_PRESSURE
	 1.000000
	REACTION
	 NaHCO3 1
	0 0.004340 0.016700 0.034910 0.060270 0.099490 0.133300 0.186490 0.262040 0.362480 0.476360 0.595860 0.745650 
	USER_GRAPH
	 -headings 0.oC-1.atm
	 -axis_titles "NaHCO3 / (mol/kg H2O)" "NaHCO3 molar volume / (cm3/mol)"
	 -axis_scale y_axis 10 35
	10 data 0, 17.407213, 17.635336, 17.848198, 18.060376, 18.448646, 18.716294, 19.082670, 19.520351, 19.994111, 20.507891, 20.988930, 21.518795, 
	20 dim d(13)
	30 read d(1), d(2), d(3), d(4), d(5), d(6), d(7), d(8), d(9), d(10), d(11), d(12), d(13), 
	40 if step_no = 1 then put(rho, 10)
	50 if step_no > 1 then Vmol = Vm("Na+") + Vm("HCO3-")
	60 if step_no = 1 then dif = 0 else dif = Vmol - d(step_no)
	62 if tot("Na") > 10 then dif = 0 
	64 if tc > 251 then dif = 0 
	90 if step_no = 13 then put(step_no + get(1), 1)
	100 if step_no = 1 then goto 150
	110 plot_xy tot("Na"), d(step_no), symbol = Square, line_w = 0, color = Red
	120 plot_xy tot("Na"), Vmol, symbol = None, color = Red
	150 end
	END
-----------------------------------------
Beginning of batch-reaction calculations.
-----------------------------------------

Reaction step 1.

Using solution 1.	
Using temperature 1.	
Using pressure 1.	
Using reaction 1.	

Reaction 1.	

	  0.000e+00 moles of the following reaction have been added:

	                 Relative
	Reactant            moles

	NaHCO3               1.00000

	                 Relative
	Element             moles
	C                    1.00000
	H                    1.00000
	Na                   1.00000
	O                    3.00000

-----------------------------Solution composition------------------------------

	Elements           Molality       Moles

	Pure water     

----------------------------Description of solution----------------------------

                                       pH  =   7.469      Charge balance
                                       pe  =   4.000      Adjusted to redox equilibrium
      Specific Conductance (µS/cm,   0°C)  = 0
                          Density (g/cm³)  =   0.99984
                               Volume (L)  =   1.00016
                        Viscosity (mPa s)  =   1.79177
                        Activity of water  =   1.000
                 Ionic strength (mol/kgw)  =   3.395e-08
                       Mass of water (kg)  =   1.000e+00
                 Total alkalinity (eq/kg)  =  -1.376e-19
                         Temperature (°C)  =   0.00
                  Electrical balance (eq)  =   1.376e-19
 Percent error, 100*(Cat-|An|)/(Cat+|An|)  =   0.00
                               Iterations  =   5
                         Gamma iterations  =   2
                      Osmotic coefficient  =   0.99993
                         Density of water  =   0.99984
                                  Total H  = 1.110124e+02
                                  Total O  = 5.550622e+01

----------------------------Distribution of species----------------------------

                                                    MacInnes  MacInnes
                                MacInnes       Log       Log       Log    mole V
   Species          Molality    Activity  Molality  Activity     Gamma   cm³/mol

   H+              3.395e-08   3.394e-08    -7.469    -7.469    -0.000      0.00
   OH-             3.395e-08   3.394e-08    -7.469    -7.469    -0.000     -6.19
   H2O             5.551e+01   1.000e+00     1.744    -0.000     0.000     18.02

------------------------------Saturation indices-------------------------------

  Phase               SI** log IAP   log K(273 K,   1 atm)

  H2O(g)           -2.21     -0.00    2.21  H2O

**For a gas, SI = log10(fugacity). Fugacity = pressure * phi / 1 atm.
  For ideal gases, phi = 1.

Reaction step 2.

Using solution 1.	
Using temperature 1.	
Using pressure 1.	
Using reaction 1.	

Reaction 1.	

	  4.340e-03 moles of the following reaction have been added:

	                 Relative
	Reactant            moles

	NaHCO3               1.00000

	                 Relative
	Element             moles
	C                    1.00000
	H                    1.00000
	Na                   1.00000
	O                    3.00000

-----------------------------Solution composition------------------------------

	Elements           Molality       Moles

	C                 4.340e-03   4.340e-03
	Na                4.340e-03   4.340e-03

----------------------------Description of solution----------------------------

                                       pH  =   8.537      Charge balance
                                       pe  =   4.000      Adjusted to redox equilibrium
      Specific Conductance (µS/cm,   0°C)  = 191
                          Density (g/cm³)  =   1.00013
                               Volume (L)  =   1.00023
                        Viscosity (mPa s)  =   1.79257
                        Activity of water  =   1.000
                 Ionic strength (mol/kgw)  =   4.384e-03
                       Mass of water (kg)  =   1.000e+00
                 Total alkalinity (eq/kg)  =   4.340e-03
                       Total CO2 (mol/kg)  =   4.340e-03
                         Temperature (°C)  =   0.00
                  Electrical balance (eq)  =   2.727e-12
 Percent error, 100*(Cat-|An|)/(Cat+|An|)  =   0.00
                               Iterations  =  12
                         Gamma iterations  =   3
                      Osmotic coefficient  =   0.98991
                         Density of water  =   0.99984
                                  Total H  = 1.110168e+02
                                  Total O  = 5.551924e+01

----------------------------Distribution of species----------------------------

                                                    MacInnes  MacInnes
                                MacInnes       Log       Log       Log    mole V
   Species          Molality    Activity  Molality  Activity     Gamma   cm³/mol

   OH-             4.254e-07   3.967e-07    -6.371    -6.402    -0.030     -6.14
   H+              3.141e-09   2.904e-09    -8.503    -8.537    -0.034      0.00
   H2O             5.551e+01   9.998e-01     1.744    -0.000     0.000     18.02
C(4)          4.340e-03
   HCO3-           4.252e-03   4.100e-03    -2.371    -2.387    -0.016     20.19
   CO2             4.403e-05   4.406e-05    -4.356    -4.356     0.000     33.49
   CO3-2           4.361e-05   3.242e-05    -4.360    -4.489    -0.129     -9.02
Na            4.340e-03
   Na+             4.340e-03   4.156e-03    -2.363    -2.381    -0.019     -3.49

------------------------------Saturation indices-------------------------------

  Phase               SI** log IAP   log K(273 K,   1 atm)

  CO2(g)           -3.25     -4.36   -1.10  CO2
  H2O(g)           -2.21     -0.00    2.21  H2O
  Nahcolite        -4.67    -15.41  -10.74  NaHCO3
  Natron           -8.43     -9.25   -0.82  Na2CO3:10H2O
  Trona           -13.28    -24.66  -11.38  Na3H(CO3)2:2H2O

**For a gas, SI = log10(fugacity). Fugacity = pressure * phi / 1 atm.
  For ideal gases, phi = 1.

Reaction step 3.

Using solution 1.	
Using temperature 1.	
Using pressure 1.	
Using reaction 1.	

Reaction 1.	

	  1.670e-02 moles of the following reaction have been added:

	                 Relative
	Reactant            moles

	NaHCO3               1.00000

	                 Relative
	Element             moles
	C                    1.00000
	H                    1.00000
	Na                   1.00000
	O                    3.00000

-----------------------------Solution composition------------------------------

	Elements           Molality       Moles

	C                 1.670e-02   1.670e-02
	Na                1.670e-02   1.670e-02

----------------------------Description of solution----------------------------

                                       pH  =   8.479      Charge balance
                                       pe  =   4.000      Adjusted to redox equilibrium
      Specific Conductance (µS/cm,   0°C)  = 702
                          Density (g/cm³)  =   1.00095
                               Volume (L)  =   1.00045
                        Viscosity (mPa s)  =   1.79422
                        Activity of water  =   0.999
                 Ionic strength (mol/kgw)  =   1.689e-02
                       Mass of water (kg)  =   1.000e+00
                 Total alkalinity (eq/kg)  =   1.670e-02
                       Total CO2 (mol/kg)  =   1.670e-02
                         Temperature (°C)  =   0.00
                  Electrical balance (eq)  =   5.759e-11
 Percent error, 100*(Cat-|An|)/(Cat+|An|)  =   0.00
                               Iterations  =  12
                         Gamma iterations  =   3
                      Osmotic coefficient  =   0.98048
                         Density of water  =   0.99984
                                  Total H  = 1.110291e+02
                                  Total O  = 5.555632e+01

----------------------------Distribution of species----------------------------

                                                    MacInnes  MacInnes
                                MacInnes       Log       Log       Log    mole V
   Species          Molality    Activity  Molality  Activity     Gamma   cm³/mol

   OH-             3.943e-07   3.466e-07    -6.404    -6.460    -0.056     -6.08
   H+              3.921e-09   3.322e-09    -8.407    -8.479    -0.072      0.00
   H2O             5.551e+01   9.994e-01     1.744    -0.000     0.000     18.02
C(4)          1.670e-02
   HCO3-           1.632e-02   1.551e-02    -1.787    -1.810    -0.022     20.78
   CO2             1.901e-04   1.907e-04    -3.721    -3.720     0.001     33.49
   CO3-2           1.898e-04   1.072e-04    -3.722    -3.970    -0.248     -8.72
Na            1.670e-02
   Na+             1.670e-02   1.540e-02    -1.777    -1.813    -0.035     -3.38

------------------------------Saturation indices-------------------------------

  Phase               SI** log IAP   log K(273 K,   1 atm)

  CO2(g)           -2.62     -3.72   -1.10  CO2
  H2O(g)           -2.21     -0.00    2.21  H2O
  Nahcolite        -3.52    -14.26  -10.74  NaHCO3
  Natron           -6.77     -7.60   -0.82  Na2CO3:10H2O
  Trona           -10.47    -21.86  -11.38  Na3H(CO3)2:2H2O

**For a gas, SI = log10(fugacity). Fugacity = pressure * phi / 1 atm.
  For ideal gases, phi = 1.

Reaction step 4.

Using solution 1.	
Using temperature 1.	
Using pressure 1.	
Using reaction 1.	

Reaction 1.	

	  3.491e-02 moles of the following reaction have been added:

	                 Relative
	Reactant            moles

	NaHCO3               1.00000

	                 Relative
	Element             moles
	C                    1.00000
	H                    1.00000
	Na                   1.00000
	O                    3.00000

-----------------------------Solution composition------------------------------

	Elements           Molality       Moles

	C                 3.491e-02   3.491e-02
	Na                3.491e-02   3.491e-02

----------------------------Description of solution----------------------------

                                       pH  =   8.427      Charge balance
                                       pe  =   4.000      Adjusted to redox equilibrium
      Specific Conductance (µS/cm,   0°C)  = 1411
                          Density (g/cm³)  =   1.00215
                               Volume (L)  =   1.00078
                        Viscosity (mPa s)  =   1.79738
                        Activity of water  =   0.999
                 Ionic strength (mol/kgw)  =   3.534e-02
                       Mass of water (kg)  =   1.000e+00
                 Total alkalinity (eq/kg)  =   3.491e-02
                       Total CO2 (mol/kg)  =   3.491e-02
                         Temperature (°C)  =   0.00
                  Electrical balance (eq)  =   6.199e-15
 Percent error, 100*(Cat-|An|)/(Cat+|An|)  =   0.00
                               Iterations  =  13
                         Gamma iterations  =   3
                      Osmotic coefficient  =   0.96512
                         Density of water  =   0.99984
                                  Total H  = 1.110473e+02
                                  Total O  = 5.561095e+01

----------------------------Distribution of species----------------------------

                                                    MacInnes  MacInnes
                                MacInnes       Log       Log       Log    mole V
   Species          Molality    Activity  Molality  Activity     Gamma   cm³/mol

   OH-             3.677e-07   3.080e-07    -6.435    -6.511    -0.077     -6.01
   H+              4.778e-09   3.737e-09    -8.321    -8.427    -0.107      0.00
   H2O             5.551e+01   9.988e-01     1.744    -0.001     0.000     18.02
C(4)          3.491e-02
   HCO3-           3.404e-02   3.166e-02    -1.468    -1.500    -0.032     21.17
   CO2             4.356e-04   4.382e-04    -3.361    -3.358     0.003     33.49
   CO3-2           4.352e-04   1.945e-04    -3.361    -3.711    -0.350     -8.43
Na            3.491e-02
   Na+             3.491e-02   3.074e-02    -1.457    -1.512    -0.055     -3.28

------------------------------Saturation indices-------------------------------

  Phase               SI** log IAP   log K(273 K,   1 atm)

  CO2(g)           -2.26     -3.36   -1.10  CO2
  H2O(g)           -2.21     -0.00    2.21  H2O
  Nahcolite        -2.91    -13.65  -10.74  NaHCO3
  Natron           -5.92     -6.74   -0.82  Na2CO3:10H2O
  Trona            -9.00    -20.39  -11.38  Na3H(CO3)2:2H2O

**For a gas, SI = log10(fugacity). Fugacity = pressure * phi / 1 atm.
  For ideal gases, phi = 1.

Reaction step 5.

Using solution 1.	
Using temperature 1.	
Using pressure 1.	
Using reaction 1.	

Reaction 1.	

	  6.027e-02 moles of the following reaction have been added:

	                 Relative
	Reactant            moles

	NaHCO3               1.00000

	                 Relative
	Element             moles
	C                    1.00000
	H                    1.00000
	Na                   1.00000
	O                    3.00000

-----------------------------Solution composition------------------------------

	Elements           Molality       Moles

	C                 6.027e-02   6.027e-02
	Na                6.027e-02   6.027e-02

----------------------------Description of solution----------------------------

                                       pH  =   8.380      Charge balance
                                       pe  =   4.000      Adjusted to redox equilibrium
      Specific Conductance (µS/cm,   0°C)  = 2346
                          Density (g/cm³)  =   1.00380
                               Volume (L)  =   1.00126
                        Viscosity (mPa s)  =   1.80289
                        Activity of water  =   0.998
                 Ionic strength (mol/kgw)  =   6.108e-02
                       Mass of water (kg)  =   1.000e+00
                 Total alkalinity (eq/kg)  =   6.027e-02
                       Total CO2 (mol/kg)  =   6.027e-02
                         Temperature (°C)  =   0.00
                  Electrical balance (eq)  =  -7.698e-14
 Percent error, 100*(Cat-|An|)/(Cat+|An|)  =  -0.00
                               Iterations  =  13
                         Gamma iterations  =   3
                      Osmotic coefficient  =   0.94629
                         Density of water  =   0.99984
                                  Total H  = 1.110727e+02
                                  Total O  = 5.568703e+01

----------------------------Distribution of species----------------------------

                                                    MacInnes  MacInnes
                                MacInnes       Log       Log       Log    mole V
   Species          Molality    Activity  Molality  Activity     Gamma   cm³/mol

   OH-             3.441e-07   2.756e-07    -6.463    -6.560    -0.096     -5.94
   H+              5.737e-09   4.172e-09    -8.241    -8.380    -0.138      0.00
   H2O             5.551e+01   9.979e-01     1.744    -0.001     0.000     18.02
C(4)          6.027e-02
   HCO3-           5.865e-02   5.280e-02    -1.232    -1.277    -0.046     21.48
   CO2             8.082e-04   8.166e-04    -3.092    -3.088     0.004     33.49
   CO3-2           8.079e-04   2.906e-04    -3.093    -3.537    -0.444     -8.13
Na            6.027e-02
   Na+             6.027e-02   5.043e-02    -1.220    -1.297    -0.077     -3.18

------------------------------Saturation indices-------------------------------

  Phase               SI** log IAP   log K(273 K,   1 atm)

  CO2(g)           -1.99     -3.09   -1.10  CO2
  H2O(g)           -2.21     -0.00    2.21  H2O
  Nahcolite        -2.47    -13.21  -10.74  NaHCO3
  Natron           -5.32     -6.14   -0.82  Na2CO3:10H2O
  Trona            -7.96    -19.35  -11.38  Na3H(CO3)2:2H2O

**For a gas, SI = log10(fugacity). Fugacity = pressure * phi / 1 atm.
  For ideal gases, phi = 1.

Reaction step 6.

Using solution 1.	
Using temperature 1.	
Using pressure 1.	
Using reaction 1.	

Reaction 1.	

	  9.949e-02 moles of the following reaction have been added:

	                 Relative
	Reactant            moles

	NaHCO3               1.00000

	                 Relative
	Element             moles
	C                    1.00000
	H                    1.00000
	Na                   1.00000
	O                    3.00000

-----------------------------Solution composition------------------------------

	Elements           Molality       Moles

	C                 9.949e-02   9.949e-02
	Na                9.949e-02   9.949e-02

----------------------------Description of solution----------------------------

                                       pH  =   8.328      Charge balance
                                       pe  =   4.000      Adjusted to redox equilibrium
      Specific Conductance (µS/cm,   0°C)  = 3708
                          Density (g/cm³)  =   1.00632
                               Volume (L)  =   1.00202
                        Viscosity (mPa s)  =   1.81340
                        Activity of water  =   0.997
                 Ionic strength (mol/kgw)  =   1.009e-01
                       Mass of water (kg)  =   1.000e+00
                 Total alkalinity (eq/kg)  =   9.949e-02
                       Total CO2 (mol/kg)  =   9.949e-02
                         Temperature (°C)  =   0.00
                  Electrical balance (eq)  =  -4.314e-13
 Percent error, 100*(Cat-|An|)/(Cat+|An|)  =  -0.00
                               Iterations  =  13
                         Gamma iterations  =   3
                      Osmotic coefficient  =   0.92397
                         Density of water  =   0.99984
                                  Total H  = 1.111119e+02
                                  Total O  = 5.580469e+01

----------------------------Distribution of species----------------------------

                                                    MacInnes  MacInnes
                                MacInnes       Log       Log       Log    mole V
   Species          Molality    Activity  Molality  Activity     Gamma   cm³/mol

   OH-             3.205e-07   2.446e-07    -6.494    -6.611    -0.117     -5.84
   H+              6.929e-09   4.694e-09    -8.159    -8.328    -0.169      0.00
   H2O             5.551e+01   9.967e-01     1.744    -0.001     0.000     18.02
C(4)          9.949e-02
   HCO3-           9.665e-02   8.278e-02    -1.015    -1.082    -0.067     21.80
   CO2             1.418e-03   1.442e-03    -2.848    -2.841     0.007     33.49
   CO3-2           1.418e-03   4.049e-04    -2.848    -3.393    -0.544     -7.76
Na            9.949e-02
   Na+             9.949e-02   7.857e-02    -1.002    -1.105    -0.103     -3.07

------------------------------Saturation indices-------------------------------

  Phase               SI** log IAP   log K(273 K,   1 atm)

  CO2(g)           -1.74     -2.84   -1.10  CO2
  H2O(g)           -2.21     -0.00    2.21  H2O
  Nahcolite        -2.08    -12.83  -10.74  NaHCO3
  Natron           -4.79     -5.62   -0.82  Na2CO3:10H2O
  Trona            -7.05    -18.43  -11.38  Na3H(CO3)2:2H2O

**For a gas, SI = log10(fugacity). Fugacity = pressure * phi / 1 atm.
  For ideal gases, phi = 1.

Reaction step 7.

Using solution 1.	
Using temperature 1.	
Using pressure 1.	
Using reaction 1.	

Reaction 1.	

	  1.333e-01 moles of the following reaction have been added:

	                 Relative
	Reactant            moles

	NaHCO3               1.00000

	                 Relative
	Element             moles
	C                    1.00000
	H                    1.00000
	Na                   1.00000
	O                    3.00000

-----------------------------Solution composition------------------------------

	Elements           Molality       Moles

	C                 1.333e-01   1.333e-01
	Na                1.333e-01   1.333e-01

----------------------------Description of solution----------------------------

                                       pH  =   8.295      Charge balance
                                       pe  =   4.000      Adjusted to redox equilibrium
      Specific Conductance (µS/cm,   0°C)  = 4821
                          Density (g/cm³)  =   1.00848
                               Volume (L)  =   1.00269
                        Viscosity (mPa s)  =   1.82406
                        Activity of water  =   0.996
                 Ionic strength (mol/kgw)  =   1.353e-01
                       Mass of water (kg)  =   1.000e+00
                 Total alkalinity (eq/kg)  =   1.333e-01
                       Total CO2 (mol/kg)  =   1.333e-01
                         Temperature (°C)  =   0.00
                  Electrical balance (eq)  =  -9.004e-13
 Percent error, 100*(Cat-|An|)/(Cat+|An|)  =  -0.00
                               Iterations  =  14
                         Gamma iterations  =   3
                      Osmotic coefficient  =   0.90955
                         Density of water  =   0.99984
                                  Total H  = 1.111457e+02
                                  Total O  = 5.590612e+01

----------------------------Distribution of species----------------------------

                                                    MacInnes  MacInnes
                                MacInnes       Log       Log       Log    mole V
   Species          Molality    Activity  Molality  Activity     Gamma   cm³/mol

   OH-             3.063e-07   2.264e-07    -6.514    -6.645    -0.131     -5.77
   H+              7.781e-09   5.066e-09    -8.109    -8.295    -0.186      0.00
   H2O             5.551e+01   9.956e-01     1.744    -0.002     0.000     18.02
C(4)          1.333e-01
   HCO3-           1.294e-01   1.065e-01    -0.888    -0.973    -0.085     22.00
   CO2             1.959e-03   2.004e-03    -2.708    -2.698     0.010     33.49
   CO3-2           1.959e-03   4.826e-04    -2.708    -3.316    -0.608     -7.50
Na            1.333e-01
   Na+             1.333e-01   1.015e-01    -0.875    -0.994    -0.118     -2.99

------------------------------Saturation indices-------------------------------

  Phase               SI** log IAP   log K(273 K,   1 atm)

  CO2(g)           -1.60     -2.70   -1.10  CO2
  H2O(g)           -2.21     -0.00    2.21  H2O
  Nahcolite        -1.86    -12.61  -10.74  NaHCO3
  Natron           -4.50     -5.32   -0.82  Na2CO3:10H2O
  Trona            -6.53    -17.91  -11.38  Na3H(CO3)2:2H2O

**For a gas, SI = log10(fugacity). Fugacity = pressure * phi / 1 atm.
  For ideal gases, phi = 1.

Reaction step 8.

Using solution 1.	
Using temperature 1.	
Using pressure 1.	
Using reaction 1.	

Reaction 1.	

	  1.865e-01 moles of the following reaction have been added:

	                 Relative
	Reactant            moles

	NaHCO3               1.00000

	                 Relative
	Element             moles
	C                    1.00000
	H                    1.00000
	Na                   1.00000
	O                    3.00000

-----------------------------Solution composition------------------------------

	Elements           Molality       Moles

	C                 1.865e-01   1.865e-01
	Na                1.865e-01   1.865e-01

----------------------------Description of solution----------------------------

                                       pH  =   8.254      Charge balance
                                       pe  =   4.000      Adjusted to redox equilibrium
      Specific Conductance (µS/cm,   0°C)  = 6483
                          Density (g/cm³)  =   1.01185
                               Volume (L)  =   1.00377
                        Viscosity (mPa s)  =   1.84338
                        Activity of water  =   0.994
                 Ionic strength (mol/kgw)  =   1.893e-01
                       Mass of water (kg)  =   1.000e+00
                 Total alkalinity (eq/kg)  =   1.865e-01
                       Total CO2 (mol/kg)  =   1.865e-01
                         Temperature (°C)  =   0.00
                  Electrical balance (eq)  =  -1.782e-12
 Percent error, 100*(Cat-|An|)/(Cat+|An|)  =  -0.00
                               Iterations  =  14
                         Gamma iterations  =   3
                      Osmotic coefficient  =   0.89255
                         Density of water  =   0.99984
                                  Total H  = 1.111989e+02
                                  Total O  = 5.606569e+01

----------------------------Distribution of species----------------------------

                                                    MacInnes  MacInnes
                                MacInnes       Log       Log       Log    mole V
   Species          Molality    Activity  Molality  Activity     Gamma   cm³/mol

   OH-             2.894e-07   2.057e-07    -6.538    -6.687    -0.148     -5.66
   H+              8.919e-09   5.569e-09    -8.050    -8.254    -0.205      0.00
   H2O             5.551e+01   9.940e-01     1.744    -0.003     0.000     18.02
C(4)          1.865e-01
   HCO3-           1.808e-01   1.405e-01    -0.743    -0.852    -0.109     22.24
   CO2             2.822e-03   2.913e-03    -2.549    -2.536     0.014     33.49
   CO3-2           2.822e-03   5.796e-04    -2.550    -3.237    -0.687     -7.15
Na            1.865e-01
   Na+             1.865e-01   1.361e-01    -0.729    -0.866    -0.137     -2.88

------------------------------Saturation indices-------------------------------

  Phase               SI** log IAP   log K(273 K,   1 atm)

  CO2(g)           -1.43     -2.54   -1.10  CO2
  H2O(g)           -2.21     -0.00    2.21  H2O
  Nahcolite        -1.62    -12.36  -10.74  NaHCO3
  Natron           -4.17     -5.00   -0.82  Na2CO3:10H2O
  Trona            -5.95    -17.33  -11.38  Na3H(CO3)2:2H2O

**For a gas, SI = log10(fugacity). Fugacity = pressure * phi / 1 atm.
  For ideal gases, phi = 1.

Reaction step 9.

Using solution 1.	
Using temperature 1.	
Using pressure 1.	
Using reaction 1.	

Reaction 1.	

	  2.620e-01 moles of the following reaction have been added:

	                 Relative
	Reactant            moles

	NaHCO3               1.00000

	                 Relative
	Element             moles
	C                    1.00000
	H                    1.00000
	Na                   1.00000
	O                    3.00000

-----------------------------Solution composition------------------------------

	Elements           Molality       Moles

	C                 2.620e-01   2.620e-01
	Na                2.620e-01   2.620e-01

----------------------------Description of solution----------------------------

                                       pH  =   8.209      Charge balance
                                       pe  =   4.000      Adjusted to redox equilibrium
      Specific Conductance (µS/cm,   0°C)  = 8687
                          Density (g/cm³)  =   1.01659
                               Volume (L)  =   1.00534
                        Viscosity (mPa s)  =   1.87548
                        Activity of water  =   0.992
                 Ionic strength (mol/kgw)  =   2.661e-01
                       Mass of water (kg)  =   1.000e+00
                 Total alkalinity (eq/kg)  =   2.620e-01
                       Total CO2 (mol/kg)  =   2.620e-01
                         Temperature (°C)  =   0.00
                  Electrical balance (eq)  =  -3.052e-12
 Percent error, 100*(Cat-|An|)/(Cat+|An|)  =  -0.00
                               Iterations  =  14
                         Gamma iterations  =   3
                      Osmotic coefficient  =   0.87541
                         Density of water  =   0.99984
                                  Total H  = 1.112745e+02
                                  Total O  = 5.629234e+01

----------------------------Distribution of species----------------------------

                                                    MacInnes  MacInnes
                                MacInnes       Log       Log       Log    mole V
   Species          Molality    Activity  Molality  Activity     Gamma   cm³/mol

   OH-             2.717e-07   1.847e-07    -6.566    -6.733    -0.168     -5.52
   H+              1.027e-08   6.186e-09    -7.988    -8.209    -0.220      0.00
   H2O             5.551e+01   9.918e-01     1.744    -0.004     0.000     18.02
C(4)          2.620e-01
   HCO3-           2.539e-01   1.838e-01    -0.595    -0.736    -0.140     22.51
   CO2             4.056e-03   4.242e-03    -2.392    -2.372     0.019     33.49
   CO3-2           4.056e-03   6.823e-04    -2.392    -3.166    -0.774     -6.71
Na            2.620e-01
   Na+             2.620e-01   1.834e-01    -0.582    -0.737    -0.155     -2.74

------------------------------Saturation indices-------------------------------

  Phase               SI** log IAP   log K(273 K,   1 atm)

  CO2(g)           -1.27     -2.37   -1.10  CO2
  H2O(g)           -2.21     -0.00    2.21  H2O
  Nahcolite        -1.37    -12.11  -10.74  NaHCO3
  Natron           -3.85     -4.67   -0.82  Na2CO3:10H2O
  Trona            -5.37    -16.76  -11.38  Na3H(CO3)2:2H2O

**For a gas, SI = log10(fugacity). Fugacity = pressure * phi / 1 atm.
  For ideal gases, phi = 1.

Reaction step 10.

Using solution 1.	
Using temperature 1.	
Using pressure 1.	
Using reaction 1.	

Reaction 1.	

	  3.625e-01 moles of the following reaction have been added:

	                 Relative
	Reactant            moles

	NaHCO3               1.00000

	                 Relative
	Element             moles
	C                    1.00000
	H                    1.00000
	Na                   1.00000
	O                    3.00000

-----------------------------Solution composition------------------------------

	Elements           Molality       Moles

	C                 3.624e-01   3.625e-01
	Na                3.624e-01   3.625e-01

----------------------------Description of solution----------------------------

                                       pH  =   8.160      Charge balance
                                       pe  =   4.000      Adjusted to redox equilibrium
      Specific Conductance (µS/cm,   0°C)  = 11385
                          Density (g/cm³)  =   1.02281
                               Volume (L)  =   1.00747
                        Viscosity (mPa s)  =   1.92547
                        Activity of water  =   0.989
                 Ionic strength (mol/kgw)  =   3.681e-01
                       Mass of water (kg)  =   1.000e+00
                 Total alkalinity (eq/kg)  =   3.624e-01
                       Total CO2 (mol/kg)  =   3.624e-01
                         Temperature (°C)  =   0.00
                  Electrical balance (eq)  =  -4.409e-12
 Percent error, 100*(Cat-|An|)/(Cat+|An|)  =  -0.00
                               Iterations  =  14
                         Gamma iterations  =   3
                      Osmotic coefficient  =   0.85936
                         Density of water  =   0.99984
                                  Total H  = 1.113749e+02
                                  Total O  = 5.659366e+01

----------------------------Distribution of species----------------------------

                                                    MacInnes  MacInnes
                                MacInnes       Log       Log       Log    mole V
   Species          Molality    Activity  Molality  Activity     Gamma   cm³/mol

   OH-             2.536e-07   1.647e-07    -6.596    -6.783    -0.187     -5.34
   H+              1.180e-08   6.917e-09    -7.928    -8.160    -0.232      0.00
   H2O             5.551e+01   9.888e-01     1.744    -0.005     0.000     18.02
C(4)          3.624e-01
   HCO3-           3.510e-01   2.343e-01    -0.455    -0.630    -0.176     22.78
   CO2             5.700e-03   6.064e-03    -2.244    -2.217     0.027     33.49
   CO3-2           5.700e-03   7.778e-04    -2.244    -3.109    -0.865     -6.22
Na            3.624e-01
   Na+             3.624e-01   2.446e-01    -0.441    -0.611    -0.171     -2.60

------------------------------Saturation indices-------------------------------

  Phase               SI** log IAP   log K(273 K,   1 atm)

  CO2(g)           -1.11     -2.22   -1.10  CO2
  H2O(g)           -2.21     -0.00    2.21  H2O
  Nahcolite        -1.14    -11.88  -10.74  NaHCO3
  Natron           -3.56     -4.38   -0.82  Na2CO3:10H2O
  Trona            -4.84    -16.22  -11.38  Na3H(CO3)2:2H2O

**For a gas, SI = log10(fugacity). Fugacity = pressure * phi / 1 atm.
  For ideal gases, phi = 1.

Reaction step 11.

Using solution 1.	
Using temperature 1.	
Using pressure 1.	
Using reaction 1.	

Reaction 1.	

	  4.764e-01 moles of the following reaction have been added:

	                 Relative
	Reactant            moles

	NaHCO3               1.00000

	                 Relative
	Element             moles
	C                    1.00000
	H                    1.00000
	Na                   1.00000
	O                    3.00000

-----------------------------Solution composition------------------------------

	Elements           Molality       Moles

	C                 4.763e-01   4.764e-01
	Na                4.763e-01   4.764e-01

----------------------------Description of solution----------------------------

                                       pH  =   8.114      Charge balance
                                       pe  =   4.000      Adjusted to redox equilibrium
      Specific Conductance (µS/cm,   0°C)  = 14170
                          Density (g/cm³)  =   1.02977
                               Volume (L)  =   1.00995
                        Viscosity (mPa s)  =   1.99093
                        Activity of water  =   0.986
                 Ionic strength (mol/kgw)  =   4.839e-01
                       Mass of water (kg)  =   1.000e+00
                 Total alkalinity (eq/kg)  =   4.763e-01
                       Total CO2 (mol/kg)  =   4.763e-01
                         Temperature (°C)  =   0.00
                  Electrical balance (eq)  =  -8.186e-11
 Percent error, 100*(Cat-|An|)/(Cat+|An|)  =  -0.00
                               Iterations  =  15
                         Gamma iterations  =   4
                      Osmotic coefficient  =   0.84602
                         Density of water  =   0.99984
                                  Total H  = 1.114888e+02
                                  Total O  = 5.693530e+01

----------------------------Distribution of species----------------------------

                                                    MacInnes  MacInnes
                                MacInnes       Log       Log       Log    mole V
   Species          Molality    Activity  Molality  Activity     Gamma   cm³/mol

   OH-             2.370e-07   1.477e-07    -6.625    -6.831    -0.205     -5.14
   H+              1.332e-08   7.688e-09    -7.876    -8.114    -0.239      0.00
   H2O             5.551e+01   9.856e-01     1.744    -0.006     0.000     18.02
C(4)          4.763e-01
   HCO3-           4.612e-01   2.843e-01    -0.336    -0.546    -0.210     23.02
   CO2             7.564e-03   8.205e-03    -2.121    -2.086     0.035     33.49
   CO3-2           7.564e-03   8.493e-04    -2.121    -3.071    -0.950     -5.73
Na            4.763e-01
   Na+             4.763e-01   3.128e-01    -0.322    -0.505    -0.183     -2.45

------------------------------Saturation indices-------------------------------

  Phase               SI** log IAP   log K(273 K,   1 atm)

  CO2(g)           -0.98     -2.09   -1.10  CO2
  H2O(g)           -2.22     -0.01    2.21  H2O
  Nahcolite        -0.95    -11.69  -10.74  NaHCO3
  Natron           -3.32     -4.14   -0.82  Na2CO3:10H2O
  Trona            -4.40    -15.78  -11.38  Na3H(CO3)2:2H2O

**For a gas, SI = log10(fugacity). Fugacity = pressure * phi / 1 atm.
  For ideal gases, phi = 1.

Reaction step 12.

Using solution 1.	
Using temperature 1.	
Using pressure 1.	
Using reaction 1.	

Reaction 1.	

	  5.959e-01 moles of the following reaction have been added:

	                 Relative
	Reactant            moles

	NaHCO3               1.00000

	                 Relative
	Element             moles
	C                    1.00000
	H                    1.00000
	Na                   1.00000
	O                    3.00000

-----------------------------Solution composition------------------------------

	Elements           Molality       Moles

	C                 5.958e-01   5.959e-01
	Na                5.958e-01   5.959e-01

----------------------------Description of solution----------------------------

                                       pH  =   8.072      Charge balance
                                       pe  =   4.000      Adjusted to redox equilibrium
      Specific Conductance (µS/cm,   0°C)  = 16819
                          Density (g/cm³)  =   1.03698
                               Volume (L)  =   1.01262
                        Viscosity (mPa s)  =   2.06850
                        Activity of water  =   0.982
                 Ionic strength (mol/kgw)  =   6.053e-01
                       Mass of water (kg)  =   1.000e+00
                 Total alkalinity (eq/kg)  =   5.958e-01
                       Total CO2 (mol/kg)  =   5.958e-01
                         Temperature (°C)  =   0.00
                  Electrical balance (eq)  =  -5.474e-10
 Percent error, 100*(Cat-|An|)/(Cat+|An|)  =  -0.00
                               Iterations  =  16
                         Gamma iterations  =   4
                      Osmotic coefficient  =   0.83509
                         Density of water  =   0.99984
                                  Total H  = 1.116083e+02
                                  Total O  = 5.729380e+01

----------------------------Distribution of species----------------------------

                                                    MacInnes  MacInnes
                                MacInnes       Log       Log       Log    mole V
   Species          Molality    Activity  Molality  Activity     Gamma   cm³/mol

   OH-             2.223e-07   1.336e-07    -6.653    -6.874    -0.221     -4.95
   H+              1.478e-08   8.469e-09    -7.830    -8.072    -0.242      0.00
   H2O             5.551e+01   9.822e-01     1.744    -0.008     0.000     18.02
C(4)          5.958e-01
   HCO3-           5.767e-01   3.304e-01    -0.239    -0.481    -0.242     23.23
   CO2             9.521e-03   1.054e-02    -2.021    -1.977     0.044     33.49
   CO3-2           9.521e-03   8.960e-04    -2.021    -3.048    -1.026     -5.28
Na            5.958e-01
   Na+             5.958e-01   3.835e-01    -0.225    -0.416    -0.191     -2.32

------------------------------Saturation indices-------------------------------

  Phase               SI** log IAP   log K(273 K,   1 atm)

  CO2(g)           -0.87     -1.98   -1.10  CO2
  H2O(g)           -2.22     -0.01    2.21  H2O
  Nahcolite        -0.79    -11.54  -10.74  NaHCO3
  Natron           -3.13     -3.96   -0.82  Na2CO3:10H2O
  Trona            -4.05    -15.43  -11.38  Na3H(CO3)2:2H2O

**For a gas, SI = log10(fugacity). Fugacity = pressure * phi / 1 atm.
  For ideal gases, phi = 1.

Reaction step 13.

Using solution 1.	
Using temperature 1.	
Using pressure 1.	
Using reaction 1.	

Reaction 1.	

	  7.457e-01 moles of the following reaction have been added:

	                 Relative
	Reactant            moles

	NaHCO3               1.00000

	                 Relative
	Element             moles
	C                    1.00000
	H                    1.00000
	Na                   1.00000
	O                    3.00000

-----------------------------Solution composition------------------------------

	Elements           Molality       Moles

	C                 7.455e-01   7.457e-01
	Na                7.455e-01   7.456e-01

----------------------------Description of solution----------------------------

                                       pH  =   8.025      Charge balance
                                       pe  =   4.000      Adjusted to redox equilibrium
      Specific Conductance (µS/cm,   0°C)  = 19793
                          Density (g/cm³)  =   1.04588
                               Volume (L)  =   1.01602
                        Viscosity (mPa s)  =   2.17724
                        Activity of water  =   0.978
                 Ionic strength (mol/kgw)  =   7.575e-01
                       Mass of water (kg)  =   1.000e+00
                 Total alkalinity (eq/kg)  =   7.455e-01
                       Total CO2 (mol/kg)  =   7.455e-01
                         Temperature (°C)  =   0.00
                  Electrical balance (eq)  =  -7.796e-10
 Percent error, 100*(Cat-|An|)/(Cat+|An|)  =  -0.00
                               Iterations  =  16
                         Gamma iterations  =   4
                      Osmotic coefficient  =   0.82403
                         Density of water  =   0.99984
                                  Total H  = 1.117581e+02
                                  Total O  = 5.774317e+01

----------------------------Distribution of species----------------------------

                                                    MacInnes  MacInnes
                                MacInnes       Log       Log       Log    mole V
   Species          Molality    Activity  Molality  Activity     Gamma   cm³/mol

   OH-             2.062e-07   1.194e-07    -6.686    -6.923    -0.237     -4.71
   H+              1.649e-08   9.440e-09    -7.783    -8.025    -0.242      0.00
   H2O             5.551e+01   9.781e-01     1.744    -0.010     0.000     18.02
C(4)          7.455e-01
   HCO3-           7.215e-01   3.810e-01    -0.142    -0.419    -0.277     23.45
   CO2             1.198e-02   1.360e-02    -1.922    -1.866     0.055     33.49
   CO3-2           1.198e-02   9.268e-04    -1.922    -3.033    -1.111     -4.76
Na            7.455e-01
   Na+             7.455e-01   4.720e-01    -0.128    -0.326    -0.199     -2.17

------------------------------Saturation indices-------------------------------

  Phase               SI** log IAP   log K(273 K,   1 atm)

  CO2(g)           -0.76     -1.87   -1.10  CO2
  H2O(g)           -2.22     -0.01    2.21  H2O
  Nahcolite        -0.64    -11.38  -10.74  NaHCO3
  Natron           -2.96     -3.78   -0.82  Na2CO3:10H2O
  Trona            -3.70    -15.09  -11.38  Na3H(CO3)2:2H2O

**For a gas, SI = log10(fugacity). Fugacity = pressure * phi / 1 atm.
  For ideal gases, phi = 1.

------------------
End of simulation.
------------------

------------------------------------
Reading input data for simulation 3.
------------------------------------

	USE solution 1
	REACTION_TEMPERATURE
	 5.000000
	REACTION_PRESSURE
	 1.000000
	REACTION
	 NaHCO3 1
	0 0.051860 0.189330 0.293550 0.396530 0.595800 0.703030 0.798210 0.897600 1.000300 1.000340 
	USER_GRAPH
	 -headings 5.oC-1.atm
	 -axis_titles "NaHCO3 / (mol/kg H2O)" "NaHCO3 molar volume / (cm3/mol)"
	10 data 0, 19.558191, 20.822626, 21.612111, 22.041263, 22.733254, 23.038033, 23.304258, 23.644369, 23.896979, 23.850856, 
	20 dim d(11)
	30 read d(1), d(2), d(3), d(4), d(5), d(6), d(7), d(8), d(9), d(10), d(11), 
	40 if step_no = 1 then put(rho, 10)
	50 if step_no > 1 then Vmol = Vm("Na+") + Vm("HCO3-")
	60 if step_no = 1 then dif = 0 else dif = Vmol - d(step_no)
	62 if tot("Na") > 10 then dif = 0 
	64 if tc > 251 then dif = 0 
	90 if step_no = 11 then put(step_no + get(1), 1)
	100 if step_no = 1 then goto 150
	110 plot_xy tot("Na"), d(step_no), symbol = Diamond, line_w = 0, color = Green
	120 plot_xy tot("Na"), Vmol, symbol = None, color = Green
	150 end
	END
-----------------------------------------
Beginning of batch-reaction calculations.
-----------------------------------------

Reaction step 1.

Using solution 1.	
Using temperature 1.	
Using pressure 1.	
Using reaction 1.	

Reaction 1.	

	  0.000e+00 moles of the following reaction have been added:

	                 Relative
	Reactant            moles

	NaHCO3               1.00000

	                 Relative
	Element             moles
	C                    1.00000
	H                    1.00000
	Na                   1.00000
	O                    3.00000

-----------------------------Solution composition------------------------------

	Elements           Molality       Moles

	Pure water     

----------------------------Description of solution----------------------------

                                       pH  =   7.365      Charge balance
                                       pe  =   4.000      Adjusted to redox equilibrium
      Specific Conductance (µS/cm,   5°C)  = 0
                          Density (g/cm³)  =   0.99996
                               Volume (L)  =   1.00004
                        Viscosity (mPa s)  =   1.51818
                        Activity of water  =   1.000
                 Ionic strength (mol/kgw)  =   4.318e-08
                       Mass of water (kg)  =   1.000e+00
                 Total alkalinity (eq/kg)  =  -1.455e-19
                         Temperature (°C)  =   5.00
                  Electrical balance (eq)  =   1.455e-19
 Percent error, 100*(Cat-|An|)/(Cat+|An|)  =   0.00
                               Iterations  =   5
                         Gamma iterations  =   2
                      Osmotic coefficient  =   0.99992
                         Density of water  =   0.99996
                                  Total H  = 1.110124e+02
                                  Total O  = 5.550622e+01

----------------------------Distribution of species----------------------------

                                                    MacInnes  MacInnes
                                MacInnes       Log       Log       Log    mole V
   Species          Molality    Activity  Molality  Activity     Gamma   cm³/mol

   H+              4.318e-08   4.317e-08    -7.365    -7.365    -0.000      0.00
   OH-             4.318e-08   4.317e-08    -7.365    -7.365    -0.000     -5.54
   H2O             5.551e+01   1.000e+00     1.744    -0.000     0.000     18.02

------------------------------Saturation indices-------------------------------

  Phase               SI** log IAP   log K(278 K,   1 atm)

  H2O(g)           -2.06     -0.00    2.06  H2O

**For a gas, SI = log10(fugacity). Fugacity = pressure * phi / 1 atm.
  For ideal gases, phi = 1.

Reaction step 2.

Using solution 1.	
Using temperature 1.	
Using pressure 1.	
Using reaction 1.	

Reaction 1.	

	  5.186e-02 moles of the following reaction have been added:

	                 Relative
	Reactant            moles

	NaHCO3               1.00000

	                 Relative
	Element             moles
	C                    1.00000
	H                    1.00000
	Na                   1.00000
	O                    3.00000

-----------------------------Solution composition------------------------------

	Elements           Molality       Moles

	C                 5.186e-02   5.186e-02
	Na                5.186e-02   5.186e-02

----------------------------Description of solution----------------------------

                                       pH  =   8.325      Charge balance
                                       pe  =   4.000      Adjusted to redox equilibrium
      Specific Conductance (µS/cm,   5°C)  = 2417
                          Density (g/cm³)  =   1.00329
                               Volume (L)  =   1.00106
                        Viscosity (mPa s)  =   1.52664
                        Activity of water  =   0.998
                 Ionic strength (mol/kgw)  =   5.255e-02
                       Mass of water (kg)  =   1.000e+00
                 Total alkalinity (eq/kg)  =   5.186e-02
                       Total CO2 (mol/kg)  =   5.186e-02
                         Temperature (°C)  =   5.00
                  Electrical balance (eq)  =  -3.555e-14
 Percent error, 100*(Cat-|An|)/(Cat+|An|)  =  -0.00
                               Iterations  =  13
                         Gamma iterations  =   3
                      Osmotic coefficient  =   0.95172
                         Density of water  =   0.99996
                                  Total H  = 1.110643e+02
                                  Total O  = 5.566180e+01

----------------------------Distribution of species----------------------------

                                                    MacInnes  MacInnes
                                MacInnes       Log       Log       Log    mole V
   Species          Molality    Activity  Molality  Activity     Gamma   cm³/mol

   OH-             4.844e-07   3.928e-07    -6.315    -6.406    -0.091     -5.30
   H+              6.387e-09   4.736e-09    -8.195    -8.325    -0.130      0.00
   H2O             5.551e+01   9.982e-01     1.744    -0.001     0.000     18.02
C(4)          5.186e-02
   HCO3-           5.048e-02   4.586e-02    -1.297    -1.339    -0.042     22.47
   CO2             6.914e-04   6.976e-04    -3.160    -3.156     0.004     33.79
   CO3-2           6.909e-04   2.638e-04    -3.161    -3.579    -0.418     -6.88
Na            5.186e-02
   Na+             5.186e-02   4.401e-02    -1.285    -1.356    -0.071     -2.65

------------------------------Saturation indices-------------------------------

  Phase               SI** log IAP   log K(278 K,   1 atm)

  CO2(g)           -1.97     -3.16   -1.19  CO2
  H2O(g)           -2.06     -0.00    2.06  H2O
  Nahcolite        -2.52    -13.26  -10.74  NaHCO3
  Natron           -5.47     -6.30   -0.82  Na2CO3:10H2O
  Trona            -8.17    -19.55  -11.38  Na3H(CO3)2:2H2O

**For a gas, SI = log10(fugacity). Fugacity = pressure * phi / 1 atm.
  For ideal gases, phi = 1.

Reaction step 3.

Using solution 1.	
Using temperature 1.	
Using pressure 1.	
Using reaction 1.	

Reaction 1.	

	  1.893e-01 moles of the following reaction have been added:

	                 Relative
	Reactant            moles

	NaHCO3               1.00000

	                 Relative
	Element             moles
	C                    1.00000
	H                    1.00000
	Na                   1.00000
	O                    3.00000

-----------------------------Solution composition------------------------------

	Elements           Molality       Moles

	C                 1.893e-01   1.893e-01
	Na                1.893e-01   1.893e-01

----------------------------Description of solution----------------------------

                                       pH  =   8.183      Charge balance
                                       pe  =   4.000      Adjusted to redox equilibrium
      Specific Conductance (µS/cm,   5°C)  = 7778
                          Density (g/cm³)  =   1.01185
                               Volume (L)  =   1.00400
                        Viscosity (mPa s)  =   1.56313
                        Activity of water  =   0.994
                 Ionic strength (mol/kgw)  =   1.922e-01
                       Mass of water (kg)  =   1.000e+00
                 Total alkalinity (eq/kg)  =   1.893e-01
                       Total CO2 (mol/kg)  =   1.893e-01
                         Temperature (°C)  =   5.00
                  Electrical balance (eq)  =  -1.845e-12
 Percent error, 100*(Cat-|An|)/(Cat+|An|)  =  -0.00
                               Iterations  =  14
                         Gamma iterations  =   3
                      Osmotic coefficient  =   0.89145
                         Density of water  =   0.99996
                                  Total H  = 1.112018e+02
                                  Total O  = 5.607421e+01

----------------------------Distribution of species----------------------------

                                                    MacInnes  MacInnes
                                MacInnes       Log       Log       Log    mole V
   Species          Molality    Activity  Molality  Activity     Gamma   cm³/mol

   OH-             3.985e-07   2.824e-07    -6.400    -6.549    -0.150     -4.99
   H+              1.055e-08   6.559e-09    -7.977    -8.183    -0.206      0.00
   H2O             5.551e+01   9.939e-01     1.744    -0.003     0.000     18.02
C(4)          1.893e-01
   HCO3-           1.835e-01   1.420e-01    -0.736    -0.848    -0.111     23.30
   CO2             2.908e-03   3.003e-03    -2.536    -2.522     0.014     33.79
   CO3-2           2.907e-03   5.895e-04    -2.537    -3.229    -0.693     -5.78
Na            1.893e-01
   Na+             1.893e-01   1.376e-01    -0.723    -0.861    -0.139     -2.33

------------------------------Saturation indices-------------------------------

  Phase               SI** log IAP   log K(278 K,   1 atm)

  CO2(g)           -1.34     -2.52   -1.19  CO2
  H2O(g)           -2.06     -0.00    2.06  H2O
  Nahcolite        -1.53    -12.27  -10.74  NaHCO3
  Natron           -4.15     -4.98   -0.82  Na2CO3:10H2O
  Trona            -5.85    -17.23  -11.38  Na3H(CO3)2:2H2O

**For a gas, SI = log10(fugacity). Fugacity = pressure * phi / 1 atm.
  For ideal gases, phi = 1.

Reaction step 4.

Using solution 1.	
Using temperature 1.	
Using pressure 1.	
Using reaction 1.	

Reaction 1.	

	  2.935e-01 moles of the following reaction have been added:

	                 Relative
	Reactant            moles

	NaHCO3               1.00000

	                 Relative
	Element             moles
	C                    1.00000
	H                    1.00000
	Na                   1.00000
	O                    3.00000

-----------------------------Solution composition------------------------------

	Elements           Molality       Moles

	C                 2.935e-01   2.936e-01
	Na                2.935e-01   2.935e-01

----------------------------Description of solution----------------------------

                                       pH  =   8.123      Charge balance
                                       pe  =   4.000      Adjusted to redox equilibrium
      Specific Conductance (µS/cm,   5°C)  = 11324
                          Density (g/cm³)  =   1.01821
                               Volume (L)  =   1.00633
                        Viscosity (mPa s)  =   1.60051
                        Activity of water  =   0.991
                 Ionic strength (mol/kgw)  =   2.982e-01
                       Mass of water (kg)  =   1.000e+00
                 Total alkalinity (eq/kg)  =   2.935e-01
                       Total CO2 (mol/kg)  =   2.935e-01
                         Temperature (°C)  =   5.00
                  Electrical balance (eq)  =  -3.568e-12
 Percent error, 100*(Cat-|An|)/(Cat+|An|)  =  -0.00
                               Iterations  =  14
                         Gamma iterations  =   3
                      Osmotic coefficient  =   0.86940
                         Density of water  =   0.99996
                                  Total H  = 1.113060e+02
                                  Total O  = 5.638687e+01

----------------------------Distribution of species----------------------------

                                                    MacInnes  MacInnes
                                MacInnes       Log       Log       Log    mole V
   Species          Molality    Activity  Molality  Activity     Gamma   cm³/mol

   OH-             3.665e-07   2.453e-07    -6.436    -6.610    -0.174     -4.79
   H+              1.268e-08   7.530e-09    -7.897    -8.123    -0.226      0.00
   H2O             5.551e+01   9.908e-01     1.744    -0.004     0.000     18.02
C(4)          2.935e-01
   HCO3-           2.843e-01   2.000e-01    -0.546    -0.699    -0.153     23.63
   CO2             4.634e-03   4.871e-03    -2.334    -2.312     0.022     33.79
   CO3-2           4.633e-03   7.233e-04    -2.334    -3.141    -0.807     -5.21
Na            2.935e-01
   Na+             2.935e-01   2.023e-01    -0.532    -0.694    -0.162     -2.17

------------------------------Saturation indices-------------------------------

  Phase               SI** log IAP   log K(278 K,   1 atm)

  CO2(g)           -1.13     -2.31   -1.19  CO2
  H2O(g)           -2.06     -0.00    2.06  H2O
  Nahcolite        -1.22    -11.96  -10.74  NaHCO3
  Natron           -3.74     -4.57   -0.82  Na2CO3:10H2O
  Trona            -5.11    -16.49  -11.38  Na3H(CO3)2:2H2O

**For a gas, SI = log10(fugacity). Fugacity = pressure * phi / 1 atm.
  For ideal gases, phi = 1.

Reaction step 5.

Using solution 1.	
Using temperature 1.	
Using pressure 1.	
Using reaction 1.	

Reaction 1.	

	  3.965e-01 moles of the following reaction have been added:

	                 Relative
	Reactant            moles

	NaHCO3               1.00000

	                 Relative
	Element             moles
	C                    1.00000
	H                    1.00000
	Na                   1.00000
	O                    3.00000

-----------------------------Solution composition------------------------------

	Elements           Molality       Moles

	C                 3.965e-01   3.965e-01
	Na                3.965e-01   3.965e-01

----------------------------Description of solution----------------------------

                                       pH  =   8.077      Charge balance
                                       pe  =   4.000      Adjusted to redox equilibrium
      Specific Conductance (µS/cm,   5°C)  = 14512
                          Density (g/cm³)  =   1.02441
                               Volume (L)  =   1.00869
                        Viscosity (mPa s)  =   1.64397
                        Activity of water  =   0.988
                 Ionic strength (mol/kgw)  =   4.028e-01
                       Mass of water (kg)  =   1.000e+00
                 Total alkalinity (eq/kg)  =   3.965e-01
                       Total CO2 (mol/kg)  =   3.965e-01
                         Temperature (°C)  =   5.00
                  Electrical balance (eq)  =  -4.816e-12
 Percent error, 100*(Cat-|An|)/(Cat+|An|)  =  -0.00
                               Iterations  =  14
                         Gamma iterations  =   3
                      Osmotic coefficient  =   0.85455
                         Density of water  =   0.99996
                                  Total H  = 1.114090e+02
                                  Total O  = 5.669581e+01

----------------------------Distribution of species----------------------------

                                                    MacInnes  MacInnes
                                MacInnes       Log       Log       Log    mole V
   Species          Molality    Activity  Molality  Activity     Gamma   cm³/mol

   OH-             3.428e-07   2.197e-07    -6.465    -6.658    -0.193     -4.60
   H+              1.444e-08   8.381e-09    -7.840    -8.077    -0.236      0.00
   H2O             5.551e+01   9.879e-01     1.744    -0.005     0.000     18.02
C(4)          3.965e-01
   HCO3-           3.838e-01   2.494e-01    -0.416    -0.603    -0.187     23.88
   CO2             6.340e-03   6.783e-03    -2.198    -2.169     0.029     33.79
   CO3-2           6.340e-03   8.106e-04    -2.198    -3.091    -0.893     -4.73
Na            3.965e-01
   Na+             3.965e-01   2.644e-01    -0.402    -0.578    -0.176     -2.04

------------------------------Saturation indices-------------------------------

  Phase               SI** log IAP   log K(278 K,   1 atm)

  CO2(g)           -0.98     -2.17   -1.19  CO2
  H2O(g)           -2.06     -0.01    2.06  H2O
  Nahcolite        -1.00    -11.75  -10.74  NaHCO3
  Natron           -3.47     -4.30   -0.82  Na2CO3:10H2O
  Trona            -4.62    -16.00  -11.38  Na3H(CO3)2:2H2O

**For a gas, SI = log10(fugacity). Fugacity = pressure * phi / 1 atm.
  For ideal gases, phi = 1.

Reaction step 6.

Using solution 1.	
Using temperature 1.	
Using pressure 1.	
Using reaction 1.	

Reaction 1.	

	  5.958e-01 moles of the following reaction have been added:

	                 Relative
	Reactant            moles

	NaHCO3               1.00000

	                 Relative
	Element             moles
	C                    1.00000
	H                    1.00000
	Na                   1.00000
	O                    3.00000

-----------------------------Solution composition------------------------------

	Elements           Molality       Moles

	C                 5.957e-01   5.958e-01
	Na                5.957e-01   5.958e-01

----------------------------Description of solution----------------------------

                                       pH  =   8.004      Charge balance
                                       pe  =   4.000      Adjusted to redox equilibrium
      Specific Conductance (µS/cm,   5°C)  = 19956
                          Density (g/cm³)  =   1.03618
                               Volume (L)  =   1.01339
                        Viscosity (mPa s)  =   1.74364
                        Activity of water  =   0.982
                 Ionic strength (mol/kgw)  =   6.053e-01
                       Mass of water (kg)  =   1.000e+00
                 Total alkalinity (eq/kg)  =   5.957e-01
                       Total CO2 (mol/kg)  =   5.957e-01
                         Temperature (°C)  =   5.00
                  Electrical balance (eq)  =  -5.720e-10
 Percent error, 100*(Cat-|An|)/(Cat+|An|)  =  -0.00
                               Iterations  =  16
                         Gamma iterations  =   4
                      Osmotic coefficient  =   0.83450
                         Density of water  =   0.99996
                                  Total H  = 1.116082e+02
                                  Total O  = 5.729362e+01

----------------------------Distribution of species----------------------------

                                                    MacInnes  MacInnes
                                MacInnes       Log       Log       Log    mole V
   Species          Molality    Activity  Molality  Activity     Gamma   cm³/mol

   OH-             3.069e-07   1.846e-07    -6.513    -6.734    -0.221     -4.27
   H+              1.739e-08   9.917e-09    -7.760    -8.004    -0.244      0.00
   H2O             5.551e+01   9.822e-01     1.744    -0.008     0.000     18.02
C(4)          5.957e-01
   HCO3-           5.764e-01   3.296e-01    -0.239    -0.482    -0.243     24.24
   CO2             9.636e-03   1.067e-02    -2.016    -1.972     0.044     33.79
   CO3-2           9.636e-03   9.053e-04    -2.016    -3.043    -1.027     -3.95
Na            5.957e-01
   Na+             5.957e-01   3.823e-01    -0.225    -0.418    -0.193     -1.83

------------------------------Saturation indices-------------------------------

  Phase               SI** log IAP   log K(278 K,   1 atm)

  CO2(g)           -0.78     -1.97   -1.19  CO2
  H2O(g)           -2.07     -0.01    2.06  H2O
  Nahcolite        -0.72    -11.46  -10.74  NaHCO3
  Natron           -3.13     -3.96   -0.82  Na2CO3:10H2O
  Trona            -3.97    -15.36  -11.38  Na3H(CO3)2:2H2O

**For a gas, SI = log10(fugacity). Fugacity = pressure * phi / 1 atm.
  For ideal gases, phi = 1.

Reaction step 7.

Using solution 1.	
Using temperature 1.	
Using pressure 1.	
Using reaction 1.	

Reaction 1.	

	  7.030e-01 moles of the following reaction have been added:

	                 Relative
	Reactant            moles

	NaHCO3               1.00000

	                 Relative
	Element             moles
	C                    1.00000
	H                    1.00000
	Na                   1.00000
	O                    3.00000

-----------------------------Solution composition------------------------------

	Elements           Molality       Moles

	C                 7.029e-01   7.030e-01
	Na                7.029e-01   7.030e-01

----------------------------Description of solution----------------------------

                                       pH  =   7.970      Charge balance
                                       pe  =   4.000      Adjusted to redox equilibrium
      Specific Conductance (µS/cm,   5°C)  = 22544
                          Density (g/cm³)  =   1.04241
                               Volume (L)  =   1.01597
                        Viscosity (mPa s)  =   1.80478
                        Activity of water  =   0.979
                 Ionic strength (mol/kgw)  =   7.143e-01
                       Mass of water (kg)  =   1.000e+00
                 Total alkalinity (eq/kg)  =   7.029e-01
                       Total CO2 (mol/kg)  =   7.029e-01
                         Temperature (°C)  =   5.00
                  Electrical balance (eq)  =  -8.844e-10
 Percent error, 100*(Cat-|An|)/(Cat+|An|)  =  -0.00
                               Iterations  =  16
                         Gamma iterations  =   4
                      Osmotic coefficient  =   0.82624
                         Density of water  =   0.99996
                                  Total H  = 1.117155e+02
                                  Total O  = 5.761531e+01

----------------------------Distribution of species----------------------------

                                                    MacInnes  MacInnes
                                MacInnes       Log       Log       Log    mole V
   Species          Molality    Activity  Molality  Activity     Gamma   cm³/mol

   OH-             2.907e-07   1.702e-07    -6.536    -6.769    -0.233     -4.10
   H+              1.885e-08   1.073e-08    -7.725    -7.970    -0.245      0.00
   H2O             5.551e+01   9.793e-01     1.744    -0.009     0.000     18.02
C(4)          7.029e-01
   HCO3-           6.801e-01   3.663e-01    -0.167    -0.436    -0.269     24.40
   CO2             1.141e-02   1.286e-02    -1.943    -1.891     0.052     33.79
   CO3-2           1.141e-02   9.304e-04    -1.943    -3.031    -1.089     -3.58
Na            7.029e-01
   Na+             7.029e-01   4.452e-01    -0.153    -0.351    -0.198     -1.73

------------------------------Saturation indices-------------------------------

  Phase               SI** log IAP   log K(278 K,   1 atm)

  CO2(g)           -0.70     -1.89   -1.19  CO2
  H2O(g)           -2.07     -0.01    2.06  H2O
  Nahcolite        -0.61    -11.35  -10.74  NaHCO3
  Natron           -3.00     -3.83   -0.82  Na2CO3:10H2O
  Trona            -3.72    -15.10  -11.38  Na3H(CO3)2:2H2O

**For a gas, SI = log10(fugacity). Fugacity = pressure * phi / 1 atm.
  For ideal gases, phi = 1.

Reaction step 8.

Using solution 1.	
Using temperature 1.	
Using pressure 1.	
Using reaction 1.	

Reaction 1.	

	  7.982e-01 moles of the following reaction have been added:

	                 Relative
	Reactant            moles

	NaHCO3               1.00000

	                 Relative
	Element             moles
	C                    1.00000
	H                    1.00000
	Na                   1.00000
	O                    3.00000

-----------------------------Solution composition------------------------------

	Elements           Molality       Moles

	C                 7.980e-01   7.982e-01
	Na                7.980e-01   7.982e-01

----------------------------Description of solution----------------------------

                                       pH  =   7.941      Charge balance
                                       pe  =   4.000      Adjusted to redox equilibrium
      Specific Conductance (µS/cm,   5°C)  = 24665
                          Density (g/cm³)  =   1.04789
                               Volume (L)  =   1.01829
                        Viscosity (mPa s)  =   1.86305
                        Activity of water  =   0.977
                 Ionic strength (mol/kgw)  =   8.110e-01
                       Mass of water (kg)  =   1.000e+00
                 Total alkalinity (eq/kg)  =   7.980e-01
                       Total CO2 (mol/kg)  =   7.980e-01
                         Temperature (°C)  =   5.00
                  Electrical balance (eq)  =  -6.930e-10
 Percent error, 100*(Cat-|An|)/(Cat+|An|)  =  -0.00
                               Iterations  =  16
                         Gamma iterations  =   4
                      Osmotic coefficient  =   0.81982
                         Density of water  =   0.99996
                                  Total H  = 1.118106e+02
                                  Total O  = 5.790085e+01

----------------------------Distribution of species----------------------------

                                                    MacInnes  MacInnes
                                MacInnes       Log       Log       Log    mole V
   Species          Molality    Activity  Molality  Activity     Gamma   cm³/mol

   OH-             2.776e-07   1.591e-07    -6.557    -6.798    -0.242     -3.95
   H+              2.009e-08   1.145e-08    -7.697    -7.941    -0.244      0.00
   H2O             5.551e+01   9.767e-01     1.744    -0.010     0.000     18.02
C(4)          7.980e-01
   HCO3-           7.721e-01   3.960e-01    -0.112    -0.402    -0.290     24.53
   CO2             1.298e-02   1.487e-02    -1.887    -1.828     0.059     33.79
   CO3-2           1.298e-02   9.424e-04    -1.887    -3.026    -1.139     -3.27
Na            7.980e-01
   Na+             7.980e-01   5.012e-01    -0.098    -0.300    -0.202     -1.64

------------------------------Saturation indices-------------------------------

  Phase               SI** log IAP   log K(278 K,   1 atm)

  CO2(g)           -0.64     -1.83   -1.19  CO2
  H2O(g)           -2.07     -0.01    2.06  H2O
  Nahcolite        -0.53    -11.27  -10.74  NaHCO3
  Natron           -2.90     -3.73   -0.82  Na2CO3:10H2O
  Trona            -3.53    -14.91  -11.38  Na3H(CO3)2:2H2O

**For a gas, SI = log10(fugacity). Fugacity = pressure * phi / 1 atm.
  For ideal gases, phi = 1.

Reaction step 9.

Using solution 1.	
Using temperature 1.	
Using pressure 1.	
Using reaction 1.	

Reaction 1.	

	  8.976e-01 moles of the following reaction have been added:

	                 Relative
	Reactant            moles

	NaHCO3               1.00000

	                 Relative
	Element             moles
	C                    1.00000
	H                    1.00000
	Na                   1.00000
	O                    3.00000

-----------------------------Solution composition------------------------------

	Elements           Molality       Moles

	C                 8.974e-01   8.976e-01
	Na                8.974e-01   8.976e-01

----------------------------Description of solution----------------------------

                                       pH  =   7.913      Charge balance
                                       pe  =   4.000      Adjusted to redox equilibrium
      Specific Conductance (µS/cm,   5°C)  = 26717
                          Density (g/cm³)  =   1.05355
                               Volume (L)  =   1.02075
                        Viscosity (mPa s)  =   1.92767
                        Activity of water  =   0.974
                 Ionic strength (mol/kgw)  =   9.120e-01
                       Mass of water (kg)  =   1.000e+00
                 Total alkalinity (eq/kg)  =   8.974e-01
                       Total CO2 (mol/kg)  =   8.974e-01
                         Temperature (°C)  =   5.00
                  Electrical balance (eq)  =   2.699e-10
 Percent error, 100*(Cat-|An|)/(Cat+|An|)  =   0.00
                               Iterations  =  16
                         Gamma iterations  =   4
                      Osmotic coefficient  =   0.81380
                         Density of water  =   0.99996
                                  Total H  = 1.119100e+02
                                  Total O  = 5.819902e+01

----------------------------Distribution of species----------------------------

                                                    MacInnes  MacInnes
                                MacInnes       Log       Log       Log    mole V
   Species          Molality    Activity  Molality  Activity     Gamma   cm³/mol

   OH-             2.649e-07   1.488e-07    -6.577    -6.828    -0.251     -3.80
   H+              2.136e-08   1.220e-08    -7.670    -7.913    -0.243      0.00
   H2O             5.551e+01   9.740e-01     1.744    -0.011     0.000     18.02
C(4)          8.974e-01
   HCO3-           8.681e-01   4.243e-01    -0.061    -0.372    -0.311     24.65
   CO2             1.463e-02   1.704e-02    -1.835    -1.768     0.066     33.79
   CO3-2           1.462e-02   9.470e-04    -1.835    -3.024    -1.189     -2.96
Na            8.974e-01
   Na+             8.974e-01   5.597e-01    -0.047    -0.252    -0.205     -1.56

------------------------------Saturation indices-------------------------------

  Phase               SI** log IAP   log K(278 K,   1 atm)

  CO2(g)           -0.58     -1.77   -1.19  CO2
  H2O(g)           -2.07     -0.01    2.06  H2O
  Nahcolite        -0.45    -11.19  -10.74  NaHCO3
  Natron           -2.82     -3.64   -0.82  Na2CO3:10H2O
  Trona            -3.36    -14.74  -11.38  Na3H(CO3)2:2H2O

**For a gas, SI = log10(fugacity). Fugacity = pressure * phi / 1 atm.
  For ideal gases, phi = 1.

Reaction step 10.

Using solution 1.	
Using temperature 1.	
Using pressure 1.	
Using reaction 1.	

Reaction 1.	

	  1.000e+00 moles of the following reaction have been added:

	                 Relative
	Reactant            moles

	NaHCO3               1.00000

	                 Relative
	Element             moles
	C                    1.00000
	H                    1.00000
	Na                   1.00000
	O                    3.00000

-----------------------------Solution composition------------------------------

	Elements           Molality       Moles

	C                 1.000e+00   1.000e+00
	Na                1.000e+00   1.000e+00

----------------------------Description of solution----------------------------

                                       pH  =   7.886      Charge balance
                                       pe  =   4.000      Adjusted to redox equilibrium
      Specific Conductance (µS/cm,   5°C)  = 28676
                          Density (g/cm³)  =   1.05934
                               Volume (L)  =   1.02331
                        Viscosity (mPa s)  =   1.99830
                        Activity of water  =   0.971
                 Ionic strength (mol/kgw)  =   1.016e+00
                       Mass of water (kg)  =   1.000e+00
                 Total alkalinity (eq/kg)  =   1.000e+00
                       Total CO2 (mol/kg)  =   1.000e+00
                         Temperature (°C)  =   5.00
                  Electrical balance (eq)  =   2.340e-09
 Percent error, 100*(Cat-|An|)/(Cat+|An|)  =   0.00
                               Iterations  =  16
                         Gamma iterations  =   4
                      Osmotic coefficient  =   0.80815
                         Density of water  =   0.99996
                                  Total H  = 1.120127e+02
                                  Total O  = 5.850712e+01

----------------------------Distribution of species----------------------------

                                                    MacInnes  MacInnes
                                MacInnes       Log       Log       Log    mole V
   Species          Molality    Activity  Molality  Activity     Gamma   cm³/mol

   OH-             2.527e-07   1.392e-07    -6.597    -6.856    -0.259     -3.64
   H+              2.264e-08   1.300e-08    -7.645    -7.886    -0.241      0.00
   H2O             5.551e+01   9.713e-01     1.744    -0.013     0.000     18.02
C(4)          1.000e+00
   HCO3-           9.674e-01   4.511e-01    -0.014    -0.346    -0.331     24.76
   CO2             1.632e-02   1.936e-02    -1.787    -1.713     0.074     33.79
   CO3-2           1.632e-02   9.451e-04    -1.787    -3.025    -1.237     -2.66
Na            1.000e+00
   Na+             1.000e+00   6.204e-01     0.000    -0.207    -0.207     -1.49

------------------------------Saturation indices-------------------------------

  Phase               SI** log IAP   log K(278 K,   1 atm)

  CO2(g)           -0.53     -1.71   -1.19  CO2
  H2O(g)           -2.07     -0.01    2.06  H2O
  Nahcolite        -0.38    -11.12  -10.74  NaHCO3
[...]

                                       pH  =   7.528      Charge balance
                                       pe  =   4.000      Adjusted to redox equilibrium
      Specific Conductance (µS/cm, 100°C)  = 150257
                          Density (g/cm³)  =   1.02270
                               Volume (L)  =   1.05978
                        Viscosity (mPa s)  =   0.38625
                        Activity of water  =   0.972
                 Ionic strength (mol/kgw)  =   1.020e+00
                       Mass of water (kg)  =   1.000e+00
                 Total alkalinity (eq/kg)  =   9.976e-01
                       Total CO2 (mol/kg)  =   9.976e-01
                         Temperature (°C)  = 100.00
                           Pressure (atm)  = 277.00
                  Electrical balance (eq)  =  -2.051e-12
 Percent error, 100*(Cat-|An|)/(Cat+|An|)  =  -0.00
                               Iterations  =  16
                         Gamma iterations  =   4
                      Osmotic coefficient  =   0.77829
                         Density of water  =   0.97106
                                  Total H  = 1.120104e+02
                                  Total O  = 5.850022e+01

----------------------------Distribution of species----------------------------

                                                    MacInnes  MacInnes
                                MacInnes       Log       Log       Log    mole V
   Species          Molality    Activity  Molality  Activity     Gamma   cm³/mol

   OH-             4.006e-05   2.325e-05    -4.397    -4.634    -0.236     -4.11
   H+              6.538e-08   2.964e-08    -7.185    -7.528    -0.344      0.00
   H2O             5.551e+01   9.724e-01     1.744    -0.012     0.000     18.55
C(4)          9.976e-01
   HCO3-           9.532e-01   4.279e-01    -0.021    -0.369    -0.348     28.02
   CO2             2.221e-02   2.623e-02    -1.654    -1.581     0.072     38.29
   CO3-2           2.217e-02   1.253e-03    -1.654    -2.902    -1.248      1.38
Na            9.976e-01
   Na+             9.976e-01   5.115e-01    -0.001    -0.291    -0.290      1.97

------------------------------Saturation indices-------------------------------

  Phase               SI** log IAP   log K(373 K, 277 atm)

  CO2(g)            0.55     -1.58   -2.13  CO2
  H2O(g)            0.06     -0.01   -0.07  H2O
  Nahcolite        -0.11    -10.72  -10.61  NaHCO3
  Natron           -2.03     -3.61   -1.57  Na2CO3:10H2O
  Trona            -3.08    -14.23  -11.15  Na3H(CO3)2:2H2O

**For a gas, SI = log10(fugacity). Fugacity = pressure * phi / 1 atm.
  For ideal gases, phi = 1.

------------------
End of simulation.
------------------

-------------------------------------
Reading input data for simulation 19.
-------------------------------------

	USE solution 1
	REACTION_TEMPERATURE
	 175.000000
	REACTION_PRESSURE
	 277.000000
	REACTION
	 NaHCO3 1
	0 0.099900 0.199600 0.499900 0.998000 
	USER_GRAPH
	 -headings 175.oC-277.atm
	 -axis_titles "NaHCO3 / (mol/kg H2O)" "NaHCO3 molar volume / (cm3/mol)"
	10 data 0, 20.960000, 22.380000, 24.330000, 25.950000, 
	20 dim d(5)
	30 read d(1), d(2), d(3), d(4), d(5), 
	40 if step_no = 1 then put(rho, 10)
	50 if step_no > 1 then Vmol = Vm("Na+") + Vm("HCO3-")
	60 if step_no = 1 then dif = 0 else dif = Vmol - d(step_no)
	62 if tot("Na") > 10 then dif = 0 
	64 if tc > 251 then dif = 0 
	90 if step_no = 5 then put(step_no + get(1), 1)
	100 if step_no = 1 then goto 150
	110 plot_xy tot("Na"), d(step_no), symbol = TriangleDown, line_w = 0, color = Brown
	120 plot_xy tot("Na"), Vmol, symbol = None, color = Brown
	150 end
	END
-----------------------------------------
Beginning of batch-reaction calculations.
-----------------------------------------

Reaction step 1.

Using solution 1.	
Using temperature 1.	
Using pressure 1.	
Using reaction 1.	

Reaction 1.	

	  0.000e+00 moles of the following reaction have been added:

	                 Relative
	Reactant            moles

	NaHCO3               1.00000

	                 Relative
	Element             moles
	C                    1.00000
	H                    1.00000
	Na                   1.00000
	O                    3.00000

-----------------------------Solution composition------------------------------

	Elements           Molality       Moles

	Pure water     

----------------------------Description of solution----------------------------

                                       pH  =   5.659      Charge balance
                                       pe  =   4.000      Adjusted to redox equilibrium
      Specific Conductance (µS/cm, 175°C)  = 2
                          Density (g/cm³)  =   0.90876
                               Volume (L)  =   1.10040
                        Viscosity (mPa s)  =   0.16152
                        Activity of water  =   1.000
                 Ionic strength (mol/kgw)  =   2.196e-06
                       Mass of water (kg)  =   1.000e+00
                 Total alkalinity (eq/kg)  =  -1.355e-20
                         Temperature (°C)  = 175.00
                           Pressure (atm)  = 277.00
                  Electrical balance (eq)  =   1.355e-20
 Percent error, 100*(Cat-|An|)/(Cat+|An|)  =   0.00
                               Iterations  =   8
                         Gamma iterations  =   2
                      Osmotic coefficient  =   0.99918
                         Density of water  =   0.90876
                                  Total H  = 1.110124e+02
                                  Total O  = 5.550622e+01

----------------------------Distribution of species----------------------------

                                                    MacInnes  MacInnes
                                MacInnes       Log       Log       Log    mole V
   Species          Molality    Activity  Molality  Activity     Gamma   cm³/mol

   H+              2.196e-06   2.190e-06    -5.658    -5.659    -0.001      0.00
   OH-             2.196e-06   2.190e-06    -5.658    -5.659    -0.001    -17.21
   H2O             5.551e+01   1.000e+00     1.744    -0.000     0.000     19.82

------------------------------Saturation indices-------------------------------

  Phase               SI** log IAP   log K(448 K, 277 atm)

  H2O(g)            0.99     -0.00   -0.99  H2O

**For a gas, SI = log10(fugacity). Fugacity = pressure * phi / 1 atm.
  For ideal gases, phi = 1.

Reaction step 2.

Using solution 1.	
Using temperature 1.	
Using pressure 1.	
Using reaction 1.	

Reaction 1.	

	  9.990e-02 moles of the following reaction have been added:

	                 Relative
	Reactant            moles

	NaHCO3               1.00000

	                 Relative
	Element             moles
	C                    1.00000
	H                    1.00000
	Na                   1.00000
	O                    3.00000

-----------------------------Solution composition------------------------------

	Elements           Molality       Moles

	C                 9.990e-02   9.990e-02
	Na                9.990e-02   9.990e-02

----------------------------Description of solution----------------------------

                                       pH  =   8.184      Charge balance
                                       pe  =   4.000      Adjusted to redox equilibrium
      Specific Conductance (µS/cm, 175°C)  = 36692
                          Density (g/cm³)  =   0.91455
                               Volume (L)  =   1.10262
                        Viscosity (mPa s)  =   0.16963
                        Activity of water  =   0.997
                 Ionic strength (mol/kgw)  =   1.020e-01
                       Mass of water (kg)  =   1.000e+00
                 Total alkalinity (eq/kg)  =   9.990e-02
                       Total CO2 (mol/kg)  =   9.990e-02
                         Temperature (°C)  = 175.00
                           Pressure (atm)  = 277.00
                  Electrical balance (eq)  =  -1.634e-12
 Percent error, 100*(Cat-|An|)/(Cat+|An|)  =  -0.00
                               Iterations  =  14
                         Gamma iterations  =   3
                      Osmotic coefficient  =   0.89143
                         Density of water  =   0.90876
                                  Total H  = 1.111123e+02
                                  Total O  = 5.580592e+01

----------------------------Distribution of species----------------------------

                                                    MacInnes  MacInnes
                                MacInnes       Log       Log       Log    mole V
   Species          Molality    Activity  Molality  Activity     Gamma   cm³/mol

   OH-             1.038e-03   7.223e-04    -2.984    -3.141    -0.157    -15.68
   H+              1.116e-08   6.546e-09    -7.952    -8.184    -0.232      0.00
   H2O             5.551e+01   9.968e-01     1.744    -0.001     0.000     19.82
C(4)          9.990e-02
   HCO3-           9.472e-02   7.200e-02    -1.024    -1.143    -0.119     19.74
   CO2             3.108e-03   3.159e-03    -2.508    -2.500     0.007     46.91
   CO3-2           2.070e-03   3.828e-04    -2.684    -3.417    -0.733    -16.95
Na            9.990e-02
   Na+             9.990e-02   6.839e-02    -1.000    -1.165    -0.165      2.06

------------------------------Saturation indices-------------------------------

  Phase               SI** log IAP   log K(448 K, 277 atm)

  CO2(g)           -0.28     -2.50   -2.22  CO2
  H2O(g)            0.99     -0.00   -0.99  H2O
  Nahcolite        -2.20    -12.77  -10.57  NaHCO3
  Natron           -4.33     -5.76   -1.43  Na2CO3:10H2O
  Trona            -7.44    -18.52  -11.08  Na3H(CO3)2:2H2O

**For a gas, SI = log10(fugacity). Fugacity = pressure * phi / 1 atm.
  For ideal gases, phi = 1.

Reaction step 3.

Using solution 1.	
Using temperature 1.	
Using pressure 1.	
Using reaction 1.	

Reaction 1.	

	  1.996e-01 moles of the following reaction have been added:

	                 Relative
	Reactant            moles

	NaHCO3               1.00000

	                 Relative
	Element             moles
	C                    1.00000
	H                    1.00000
	Na                   1.00000
	O                    3.00000

-----------------------------Solution composition------------------------------

	Elements           Molality       Moles

	C                 1.996e-01   1.996e-01
	Na                1.996e-01   1.996e-01

----------------------------Description of solution----------------------------

                                       pH  =   8.137      Charge balance
                                       pe  =   4.000      Adjusted to redox equilibrium
      Specific Conductance (µS/cm, 175°C)  = 66961
                          Density (g/cm³)  =   0.92017
                               Volume (L)  =   1.10498
                        Viscosity (mPa s)  =   0.17727
                        Activity of water  =   0.994
                 Ionic strength (mol/kgw)  =   2.046e-01
                       Mass of water (kg)  =   1.000e+00
                 Total alkalinity (eq/kg)  =   1.996e-01
                       Total CO2 (mol/kg)  =   1.996e-01
                         Temperature (°C)  = 175.00
                           Pressure (atm)  = 277.00
                  Electrical balance (eq)  =  -1.025e-11
 Percent error, 100*(Cat-|An|)/(Cat+|An|)  =  -0.00
                               Iterations  =  15
                         Gamma iterations  =   4
                      Osmotic coefficient  =   0.85186
                         Density of water  =   0.90876
                                  Total H  = 1.112120e+02
                                  Total O  = 5.610502e+01

----------------------------Distribution of species----------------------------

                                                    MacInnes  MacInnes
                                MacInnes       Log       Log       Log    mole V
   Species          Molality    Activity  Molality  Activity     Gamma   cm³/mol

   OH-             1.003e-03   6.427e-04    -2.999    -3.192    -0.193    -14.98
   H+              1.454e-08   7.297e-09    -7.837    -8.137    -0.300      0.00
   H2O             5.551e+01   9.939e-01     1.744    -0.003     0.000     19.82
C(4)          1.996e-01
   HCO3-           1.885e-01   1.268e-01    -0.725    -0.897    -0.172     20.31
   CO2             6.044e-03   6.247e-03    -2.219    -2.204     0.014     46.91
   CO3-2           5.041e-03   6.007e-04    -2.297    -3.221    -0.924    -15.48
Na            1.996e-01
   Na+             1.996e-01   1.194e-01    -0.700    -0.923    -0.223      2.28

------------------------------Saturation indices-------------------------------

  Phase               SI** log IAP   log K(448 K, 277 atm)

  CO2(g)            0.02     -2.20   -2.22  CO2
  H2O(g)            0.99     -0.00   -0.99  H2O
  Nahcolite        -1.71    -12.28  -10.58  NaHCO3
  Natron           -3.66     -5.09   -1.44  Na2CO3:10H2O
  Trona            -6.26    -17.35  -11.09  Na3H(CO3)2:2H2O

**For a gas, SI = log10(fugacity). Fugacity = pressure * phi / 1 atm.
  For ideal gases, phi = 1.

Reaction step 4.

Using solution 1.	
Using temperature 1.	
Using pressure 1.	
Using reaction 1.	

Reaction 1.	

	  4.999e-01 moles of the following reaction have been added:

	                 Relative
	Reactant            moles

	NaHCO3               1.00000

	                 Relative
	Element             moles
	C                    1.00000
	H                    1.00000
	Na                   1.00000
	O                    3.00000

-----------------------------Solution composition------------------------------

	Elements           Molality       Moles

	C                 4.998e-01   4.999e-01
	Na                4.998e-01   4.999e-01

----------------------------Description of solution----------------------------

                                       pH  =   8.021      Charge balance
                                       pe  =   4.000      Adjusted to redox equilibrium
      Specific Conductance (µS/cm, 175°C)  = 141707
                          Density (g/cm³)  =   0.93656
                               Volume (L)  =   1.11258
                        Viscosity (mPa s)  =   0.20027
                        Activity of water  =   0.986
                 Ionic strength (mol/kgw)  =   5.139e-01
                       Mass of water (kg)  =   1.000e+00
                 Total alkalinity (eq/kg)  =   4.998e-01
                       Total CO2 (mol/kg)  =   4.998e-01
                         Temperature (°C)  = 175.00
                           Pressure (atm)  = 277.00
                  Electrical balance (eq)  =  -2.116e-12
 Percent error, 100*(Cat-|An|)/(Cat+|An|)  =  -0.00
                               Iterations  =  18
                         Gamma iterations  =   4
                      Osmotic coefficient  =   0.79294
                         Density of water  =   0.90876
                                  Total H  = 1.115123e+02
                                  Total O  = 5.700592e+01

----------------------------Distribution of species----------------------------

                                                    MacInnes  MacInnes
                                MacInnes       Log       Log       Log    mole V
   Species          Molality    Activity  Molality  Activity     Gamma   cm³/mol

   OH-             8.281e-04   4.832e-04    -3.082    -3.316    -0.234    -13.47
   H+              2.367e-08   9.517e-09    -7.626    -8.021    -0.396      0.00
   H2O             5.551e+01   9.858e-01     1.744    -0.006     0.000     19.82
C(4)          4.998e-01
   HCO3-           4.706e-01   2.494e-01    -0.327    -0.603    -0.276     21.46
   CO2             1.500e-02   1.630e-02    -1.824    -1.788     0.036     46.91
   CO3-2           1.418e-02   8.973e-04    -1.848    -3.047    -1.199    -13.07
Na            4.998e-01
   Na+             4.998e-01   2.425e-01    -0.301    -0.615    -0.314      2.58

------------------------------Saturation indices-------------------------------

  Phase               SI** log IAP   log K(448 K, 277 atm)

  CO2(g)            0.44     -1.79   -2.22  CO2
  H2O(g)            0.98     -0.01   -0.99  H2O
  Nahcolite        -1.10    -11.68  -10.58  NaHCO3
  Natron           -2.89     -4.34   -1.45  Na2CO3:10H2O
  Trona            -4.87    -15.97  -11.11  Na3H(CO3)2:2H2O

**For a gas, SI = log10(fugacity). Fugacity = pressure * phi / 1 atm.
  For ideal gases, phi = 1.

Reaction step 5.

Using solution 1.	
Using temperature 1.	
Using pressure 1.	
Using reaction 1.	

Reaction 1.	

	  9.980e-01 moles of the following reaction have been added:

	                 Relative
	Reactant            moles

	NaHCO3               1.00000

	                 Relative
	Element             moles
	C                    1.00000
	H                    1.00000
	Na                   1.00000
	O                    3.00000

-----------------------------Solution composition------------------------------

	Elements           Molality       Moles

	C                 9.975e-01   9.980e-01
	Na                9.975e-01   9.980e-01

----------------------------Description of solution----------------------------

                                       pH  =   7.906      Charge balance
                                       pe  =   4.000      Adjusted to redox equilibrium
      Specific Conductance (µS/cm, 175°C)  = 235568
                          Density (g/cm³)  =   0.96241
                               Volume (L)  =   1.12617
                        Viscosity (mPa s)  =   0.23932
                        Activity of water  =   0.974
                 Ionic strength (mol/kgw)  =   1.025e+00
                       Mass of water (kg)  =   1.000e+00
                 Total alkalinity (eq/kg)  =   9.975e-01
                       Total CO2 (mol/kg)  =   9.975e-01
                         Temperature (°C)  = 175.00
                           Pressure (atm)  = 277.00
                  Electrical balance (eq)  =  -1.259e-11
 Percent error, 100*(Cat-|An|)/(Cat+|An|)  =  -0.00
                               Iterations  =  18
                         Gamma iterations  =   4
                      Osmotic coefficient  =   0.73438
                         Density of water  =   0.90876
                                  Total H  = 1.120104e+02
                                  Total O  = 5.850022e+01

----------------------------Distribution of species----------------------------

                                                    MacInnes  MacInnes
                                MacInnes       Log       Log       Log    mole V
   Species          Molality    Activity  Molality  Activity     Gamma   cm³/mol

   OH-             6.391e-04   3.608e-04    -3.194    -3.443    -0.248    -11.60
   H+              3.637e-08   1.242e-08    -7.439    -7.906    -0.467      0.00
   H2O             5.551e+01   9.739e-01     1.744    -0.011     0.000     19.82
C(4)          9.975e-01
   HCO3-           9.416e-01   3.827e-01    -0.026    -0.417    -0.391     22.75
   CO2             2.827e-02   3.335e-02    -1.549    -1.477     0.072     46.91
   CO3-2           2.763e-02   1.049e-03    -1.559    -2.979    -1.421    -10.96
Na            9.975e-01
   Na+             9.975e-01   4.010e-01    -0.001    -0.397    -0.396      2.78

------------------------------Saturation indices-------------------------------

  Phase               SI** log IAP   log K(448 K, 277 atm)

  CO2(g)            0.75     -1.48   -2.22  CO2
  H2O(g)            0.98     -0.01   -0.99  H2O
  Nahcolite        -0.69    -11.28  -10.59  NaHCO3
  Natron           -2.43     -3.89   -1.45  Na2CO3:10H2O
  Trona            -3.95    -15.08  -11.12  Na3H(CO3)2:2H2O

**For a gas, SI = log10(fugacity). Fugacity = pressure * phi / 1 atm.
  For ideal gases, phi = 1.

------------------
End of simulation.
------------------

-------------------------------------
Reading input data for simulation 20.
-------------------------------------

