WARNING: Database file from DATABASE keyword is used; command line argument ignored.
   Input file: Vm_NH4Cl_sol
  Output file: Vm_NH4Cl_sol.out
Database file: ../database/Amm.dat

------------------
Reading data base.
------------------

	SOLUTION_MASTER_SPECIES
	SOLUTION_SPECIES
	PHASES
	GAS_BINARY_PARAMETERS
	EXCHANGE_MASTER_SPECIES
	EXCHANGE_SPECIES
	SURFACE_MASTER_SPECIES
	SURFACE_SPECIES
	MEAN_GAMMAS
	RATES
	END
------------------------------------
Reading input data for simulation 1.
------------------------------------

	DATABASE ../database/Amm.dat
	SELECTED_OUTPUT 101
	    file                 Vm_NH4Cl_sol_101.sel
	USER_PUNCH 101
	    headings Mu SC
	    start
	10 PUNCH STR_F$(MU, 20, 12)
	20 PUNCH STR_F$(SC, 20, 10)
	    end
	SOLUTION 1
	 pH 7 charge
	END
-------------------------------------------
Beginning of initial solution calculations.
-------------------------------------------

Initial solution 1.	

-----------------------------Solution composition------------------------------

	Elements           Molality       Moles

	Pure water     

----------------------------Description of solution----------------------------

                                       pH  =   6.997      Charge balance
                                       pe  =   4.000    
      Specific Conductance (µS/cm,  25°C)  = 0
                          Density (g/cm³)  =   0.99704
                               Volume (L)  =   1.00297
                        Viscosity (mPa s)  =   0.89002
                        Activity of water  =   1.000
                 Ionic strength (mol/kgw)  =   1.006e-07
                       Mass of water (kg)  =   1.000e+00
                 Total alkalinity (eq/kg)  =   3.040e-17
                         Temperature (°C)  =  25.00
                  Electrical balance (eq)  =  -3.040e-17
 Percent error, 100*(Cat-|An|)/(Cat+|An|)  =  -0.00
                               Iterations  =   2
                                  Total H  = 1.110124e+02
                                  Total O  = 5.550622e+01

----------------------------Distribution of species----------------------------

                                               Log       Log       Log    mole V
   Species          Molality    Activity  Molality  Activity     Gamma   cm³/mol

   OH-             1.006e-07   1.006e-07    -6.997    -6.997    -0.000     -4.14
   H+              1.006e-07   1.006e-07    -6.997    -6.997    -0.000      0.00
   H2O             5.551e+01   1.000e+00     1.744    -0.000     0.000     18.07
H(0)          1.433e-25
   H2              7.166e-26   7.166e-26   -25.145   -25.145     0.000     14.99
O(0)          0.000e+00
   O2              0.000e+00   0.000e+00   -42.073   -42.073     0.000     30.40

------------------------------Saturation indices-------------------------------

  Phase               SI** log IAP   log K(298 K,   1 atm)

  H2(g)           -22.05    -25.14   -3.10  H2
  H2O(g)           -1.50     -0.00    1.50  H2O
  O2(g)           -39.18    -42.07   -2.89  O2

**For a gas, SI = log10(fugacity). Fugacity = pressure * phi / 1 atm.
  For ideal gases, phi = 1.

------------------
End of simulation.
------------------

------------------------------------
Reading input data for simulation 2.
------------------------------------

	END
------------------
End of simulation.
------------------

------------------------------------
Reading input data for simulation 3.
------------------------------------

	USE solution 1
	REACTION_TEMPERATURE
	 12.500000
	REACTION_PRESSURE
	 1.000000
	REACTION
	 AmmHCl 1
	0 0.001000 0.005000 0.010010 0.020020 0.050060 0.100130 0.200260 0.500650 0.600780 
	USER_GRAPH
	 -headings 12.C_1.atm
	 -axis_titles "NH4Cl / (mol/kg H2O)" "NH4Cl molar volume / (cm3/mol)"
	10 data 0, 34.510000, 35.508000, 35.523000, 34.517000, 34.701000, 35.071000, 35.959000, 36.529000, 36.418000, 
	20 dim d(10)
	30 read d(1), d(2), d(3), d(4), d(5), d(6), d(7), d(8), d(9), d(10), 
	40 if step_no = 1 then put(rho, 10)
	50 if step_no > 1 then Vmol = (1e3 + tot("Cl") * 53.4917) / (tot("Cl") * rho) - 1e3 / (tot("Cl") * get(10))
	60 if step_no = 1 then dif = 0 else dif = Vmol - d(step_no)
	62 if tot("Cl") > 10 or tc > 200 or pressure > 1e3 then dif = 0 
	90 if step_no = 10 then put(step_no + get(1), 1)
	100 if step_no = 1 then goto 150
	110 plot_xy tot("Cl"), d(step_no), symbol = Square, line_w = 0, color = Red
	120 plot_xy tot("Cl"), Vmol, symbol = None, color = Red
	150 end
	END
-----------------------------------------
Beginning of batch-reaction calculations.
-----------------------------------------

Reaction step 1.

Using solution 1.	
Using temperature 1.	
Using pressure 1.	
Using reaction 1.	

Reaction 1.	

	  0.000e+00 moles of the following reaction have been added:

	                 Relative
	Reactant            moles

	AmmHCl               1.00000

	                 Relative
	Element             moles
	Amm                  1.00000
	Cl                   1.00000
	H                    1.00000

-----------------------------Solution composition------------------------------

	Elements           Molality       Moles

	Pure water     

----------------------------Description of solution----------------------------

                                       pH  =   7.218      Charge balance
                                       pe  =  -0.356      Adjusted to redox equilibrium
      Specific Conductance (µS/cm,  12°C)  = 0
                          Density (g/cm³)  =   0.99944
                               Volume (L)  =   1.00056
                        Viscosity (mPa s)  =   1.21707
                        Activity of water  =   1.000
                 Ionic strength (mol/kgw)  =   6.054e-08
                       Mass of water (kg)  =   1.000e+00
                 Total alkalinity (eq/kg)  =   4.679e-16
                         Temperature (°C)  =  12.50
                  Electrical balance (eq)  =  -4.679e-16
 Percent error, 100*(Cat-|An|)/(Cat+|An|)  =  -0.00
                               Iterations  =   7
                                  Total H  = 1.110124e+02
                                  Total O  = 5.550622e+01

----------------------------Distribution of species----------------------------

                                               Log       Log       Log    mole V
   Species          Molality    Activity  Molality  Activity     Gamma   cm³/mol

   OH-             6.054e-08   6.052e-08    -7.218    -7.218    -0.000     -4.83
   H+              6.054e-08   6.052e-08    -7.218    -7.218    -0.000      0.00
   H2O             5.551e+01   1.000e+00     1.744    -0.000     0.000     18.03
H(0)          3.042e-17
   H2              1.521e-17   1.521e-17   -16.818   -16.818     0.000     13.90
O(0)          0.000e+00
   O2              0.000e+00   0.000e+00   -63.070   -63.070     0.000     29.24

------------------------------Saturation indices-------------------------------

  Phase               SI** log IAP   log K(285 K,   1 atm)

  H2(g)           -13.75    -16.82   -3.07  H2
  H2O(g)           -1.84     -0.00    1.84  H2O
  O2(g)           -60.28    -63.07   -2.79  O2

**For a gas, SI = log10(fugacity). Fugacity = pressure * phi / 1 atm.
  For ideal gases, phi = 1.

Reaction step 2.

Using solution 1.	
Using temperature 1.	
Using pressure 1.	
Using reaction 1.	

Reaction 1.	

	  1.000e-03 moles of the following reaction have been added:

	                 Relative
	Reactant            moles

	AmmHCl               1.00000

	                 Relative
	Element             moles
	Amm                  1.00000
	Cl                   1.00000
	H                    1.00000

-----------------------------Solution composition------------------------------

	Elements           Molality       Moles

	Amm               1.000e-03   1.000e-03
	Cl                1.000e-03   1.000e-03

----------------------------Description of solution----------------------------

                                       pH  =   6.334      Charge balance
                                       pe  =  -0.571      Adjusted to redox equilibrium
      Specific Conductance (µS/cm,  12°C)  = 111
                          Density (g/cm³)  =   0.99946
                               Volume (L)  =   1.00060
                        Viscosity (mPa s)  =   1.21720
                        Activity of water  =   1.000
                 Ionic strength (mol/kgw)  =   1.000e-03
                       Mass of water (kg)  =   1.000e+00
                 Total alkalinity (eq/kg)  =   9.970e-17
                         Temperature (°C)  =  12.50
                  Electrical balance (eq)  =   4.920e-15
 Percent error, 100*(Cat-|An|)/(Cat+|An|)  =   0.00
                               Iterations  =   9
                                  Total H  = 1.110134e+02
                                  Total O  = 5.550622e+01

----------------------------Distribution of species----------------------------

                                               Log       Log       Log    mole V
   Species          Molality    Activity  Molality  Activity     Gamma   cm³/mol

   H+              4.792e-07   4.635e-07    -6.320    -6.334    -0.014      0.00
   OH-             8.186e-09   7.904e-09    -8.087    -8.102    -0.015     -4.81
   H2O             5.551e+01   1.000e+00     1.744    -0.000     0.000     18.03
Amm           1.000e-03
   AmmH+           9.995e-04   9.647e-04    -3.000    -3.016    -0.015     17.23
   Amm             4.711e-07   4.713e-07    -6.327    -6.327     0.000     23.71
Cl            1.000e-03
   Cl-             1.000e-03   9.656e-04    -3.000    -3.015    -0.015     17.53
   HCl             1.664e-10   1.666e-10    -9.779    -9.778     0.000     19.32
H(0)          4.807e-15
   H2              2.404e-15   2.404e-15   -14.619   -14.619     0.000     13.90
O(0)          0.000e+00
   O2              0.000e+00   0.000e+00   -67.468   -67.468     0.000     29.24

------------------------------Saturation indices-------------------------------

  Phase               SI** log IAP   log K(285 K,   1 atm)

  Amm(g)           -8.40     -6.33    2.07  Amm
  H2(g)           -11.55    -14.62   -3.07  H2
  H2O(g)           -1.84     -0.00    1.84  H2O
  O2(g)           -64.68    -67.47   -2.79  O2

**For a gas, SI = log10(fugacity). Fugacity = pressure * phi / 1 atm.
  For ideal gases, phi = 1.

Reaction step 3.

Using solution 1.	
Using temperature 1.	
Using pressure 1.	
Using reaction 1.	

Reaction 1.	

	  5.000e-03 moles of the following reaction have been added:

	                 Relative
	Reactant            moles

	AmmHCl               1.00000

	                 Relative
	Element             moles
	Amm                  1.00000
	Cl                   1.00000
	H                    1.00000

-----------------------------Solution composition------------------------------

	Elements           Molality       Moles

	Amm               5.000e-03   5.000e-03
	Cl                5.000e-03   5.000e-03

----------------------------Description of solution----------------------------

                                       pH  =   6.004      Charge balance
                                       pe  =  12.889      Adjusted to redox equilibrium
      Specific Conductance (µS/cm,  12°C)  = 545
                          Density (g/cm³)  =   0.99953
                               Volume (L)  =   1.00074
                        Viscosity (mPa s)  =   1.21722
                        Activity of water  =   1.000
                 Ionic strength (mol/kgw)  =   5.000e-03
                       Mass of water (kg)  =   1.000e+00
                 Total alkalinity (eq/kg)  =   3.364e-17
                         Temperature (°C)  =  12.50
                  Electrical balance (eq)  =   1.964e-16
 Percent error, 100*(Cat-|An|)/(Cat+|An|)  =   0.00
                               Iterations  =  11
                                  Total H  = 1.110174e+02
                                  Total O  = 5.550622e+01

----------------------------Distribution of species----------------------------

                                               Log       Log       Log    mole V
   Species          Molality    Activity  Molality  Activity     Gamma   cm³/mol

   H+              1.059e-06   9.903e-07    -5.975    -6.004    -0.029      0.00
   OH-             3.988e-09   3.699e-09    -8.399    -8.432    -0.033     -4.77
   H2O             5.551e+01   9.998e-01     1.744    -0.000     0.000     18.03
Amm           5.000e-03
   AmmH+           4.999e-03   4.629e-03    -2.301    -2.335    -0.033     17.28
   Amm             1.057e-06   1.058e-06    -5.976    -5.975     0.001     23.71
Cl            5.000e-03
   Cl-             5.000e-03   4.639e-03    -2.301    -2.334    -0.033     17.57
   HCl             1.702e-09   1.710e-09    -8.769    -8.767     0.002     19.32
H(0)          0.000e+00
   H2              0.000e+00   0.000e+00   -40.880   -40.880     0.001     13.90
O(0)          2.259e-15
   O2              1.129e-15   1.131e-15   -14.947   -14.947     0.001     29.24

------------------------------Saturation indices-------------------------------

  Phase               SI** log IAP   log K(285 K,   1 atm)

  Amm(g)           -8.05     -5.98    2.07  Amm
  H2(g)           -37.81    -40.88   -3.07  H2
  H2O(g)           -1.84     -0.00    1.84  H2O
  O2(g)           -12.16    -14.95   -2.79  O2

**For a gas, SI = log10(fugacity). Fugacity = pressure * phi / 1 atm.
  For ideal gases, phi = 1.

Reaction step 4.

Using solution 1.	
Using temperature 1.	
Using pressure 1.	
Using reaction 1.	

Reaction 1.	

	  1.001e-02 moles of the following reaction have been added:

	                 Relative
	Reactant            moles

	AmmHCl               1.00000

	                 Relative
	Element             moles
	Amm                  1.00000
	Cl                   1.00000
	H                    1.00000

-----------------------------Solution composition------------------------------

	Elements           Molality       Moles

	Amm               1.001e-02   1.001e-02
	Cl                1.001e-02   1.001e-02

----------------------------Description of solution----------------------------

                                       pH  =   5.866      Charge balance
                                       pe  =  13.057      Adjusted to redox equilibrium
      Specific Conductance (µS/cm,  12°C)  = 1074
                          Density (g/cm³)  =   0.99962
                               Volume (L)  =   1.00091
                        Viscosity (mPa s)  =   1.21713
                        Activity of water  =   1.000
                 Ionic strength (mol/kgw)  =   1.001e-02
                       Mass of water (kg)  =   1.000e+00
                 Total alkalinity (eq/kg)  =   1.634e-15
                         Temperature (°C)  =  12.50
                  Electrical balance (eq)  =   3.671e-13
 Percent error, 100*(Cat-|An|)/(Cat+|An|)  =   0.00
                               Iterations  =  11
                                  Total H  = 1.110224e+02
                                  Total O  = 5.550622e+01

----------------------------Distribution of species----------------------------

                                               Log       Log       Log    mole V
   Species          Molality    Activity  Molality  Activity     Gamma   cm³/mol

   H+              1.490e-06   1.363e-06    -5.827    -5.866    -0.039      0.00
   OH-             2.979e-09   2.687e-09    -8.526    -8.571    -0.045     -4.74
   H2O             5.551e+01   9.997e-01     1.744    -0.000     0.000     18.03
Amm           1.001e-02
   AmmH+           1.001e-02   8.998e-03    -2.000    -2.046    -0.046     17.31
   Amm             1.491e-06   1.495e-06    -5.826    -5.825     0.001     23.71
Cl            1.001e-02
   Cl-             1.001e-02   9.035e-03    -2.000    -2.044    -0.045     17.59
   HCl             4.539e-09   4.584e-09    -8.343    -8.339     0.004     19.32
H(0)          0.000e+00
   H2              0.000e+00   0.000e+00   -40.939   -40.938     0.001     13.90
O(0)          2.945e-15
   O2              1.473e-15   1.476e-15   -14.832   -14.831     0.001     29.24

------------------------------Saturation indices-------------------------------

  Phase               SI** log IAP   log K(285 K,   1 atm)

  Amm(g)           -7.90     -5.83    2.07  Amm
  H2(g)           -37.87    -40.94   -3.07  H2
  H2O(g)           -1.84     -0.00    1.84  H2O
  O2(g)           -12.04    -14.83   -2.79  O2

**For a gas, SI = log10(fugacity). Fugacity = pressure * phi / 1 atm.
  For ideal gases, phi = 1.

Reaction step 5.

Using solution 1.	
Using temperature 1.	
Using pressure 1.	
Using reaction 1.	

Reaction 1.	

	  2.002e-02 moles of the following reaction have been added:

	                 Relative
	Reactant            moles

	AmmHCl               1.00000

	                 Relative
	Element             moles
	Amm                  1.00000
	Cl                   1.00000
	H                    1.00000

-----------------------------Solution composition------------------------------

	Elements           Molality       Moles

	Amm               2.002e-02   2.002e-02
	Cl                2.002e-02   2.002e-02

----------------------------Description of solution----------------------------

                                       pH  =   5.731      Charge balance
                                       pe  =   0.182      Adjusted to redox equilibrium
      Specific Conductance (µS/cm,  12°C)  = 2105
                          Density (g/cm³)  =   0.99981
                               Volume (L)  =   1.00126
                        Viscosity (mPa s)  =   1.21687
                        Activity of water  =   0.999
                 Ionic strength (mol/kgw)  =   2.002e-02
                       Mass of water (kg)  =   1.000e+00
                 Total alkalinity (eq/kg)  =   5.415e-13
                         Temperature (°C)  =  12.50
                  Electrical balance (eq)  =   5.119e-11
 Percent error, 100*(Cat-|An|)/(Cat+|An|)  =   0.00
                               Iterations  =  10
                                  Total H  = 1.110325e+02
                                  Total O  = 5.550622e+01

----------------------------Distribution of species----------------------------

                                               Log       Log       Log    mole V
   Species          Molality    Activity  Molality  Activity     Gamma   cm³/mol

   H+              2.087e-06   1.860e-06    -5.681    -5.731    -0.050      0.00
   OH-             2.264e-09   1.968e-09    -8.645    -8.706    -0.061     -4.69
   H2O             5.551e+01   9.993e-01     1.744    -0.000     0.000     18.03
Amm           2.002e-02
   AmmH+           2.002e-02   1.730e-02    -1.699    -1.762    -0.063     17.36
   Amm             2.096e-06   2.106e-06    -5.679    -5.677     0.002     23.71
Cl            2.002e-02
   Cl-             2.002e-02   1.743e-02    -1.699    -1.759    -0.060     17.63
   HCl             1.183e-08   1.207e-08    -7.927    -7.918     0.009     19.32
H(0)          2.400e-15
   H2              1.200e-15   1.206e-15   -14.921   -14.919     0.002     13.90
O(0)          0.000e+00
   O2              0.000e+00   0.000e+00   -66.871   -66.869     0.002     29.24

------------------------------Saturation indices-------------------------------

  Phase               SI** log IAP   log K(285 K,   1 atm)

  Amm(g)           -7.75     -5.68    2.07  Amm
  H2(g)           -11.85    -14.92   -3.07  H2
  H2O(g)           -1.84     -0.00    1.84  H2O
  O2(g)           -64.08    -66.87   -2.79  O2

**For a gas, SI = log10(fugacity). Fugacity = pressure * phi / 1 atm.
  For ideal gases, phi = 1.

Reaction step 6.

Using solution 1.	
Using temperature 1.	
Using pressure 1.	
Using reaction 1.	

Reaction 1.	

	  5.006e-02 moles of the following reaction have been added:

	                 Relative
	Reactant            moles

	AmmHCl               1.00000

	                 Relative
	Element             moles
	Amm                  1.00000
	Cl                   1.00000
	H                    1.00000

-----------------------------Solution composition------------------------------

	Elements           Molality       Moles

	Amm               5.006e-02   5.006e-02
	Cl                5.006e-02   5.006e-02

----------------------------Description of solution----------------------------

                                       pH  =   5.559      Charge balance
                                       pe  =   0.389      Adjusted to redox equilibrium
      Specific Conductance (µS/cm,  12°C)  = 5086
                          Density (g/cm³)  =   1.00036
                               Volume (L)  =   1.00232
                        Viscosity (mPa s)  =   1.21588
                        Activity of water  =   0.998
                 Ionic strength (mol/kgw)  =   5.006e-02
                       Mass of water (kg)  =   1.000e+00
                 Total alkalinity (eq/kg)  =   7.902e-17
                         Temperature (°C)  =  12.50
                  Electrical balance (eq)  =   1.137e-14
 Percent error, 100*(Cat-|An|)/(Cat+|An|)  =   0.00
                               Iterations  =  11
                                  Total H  = 1.110625e+02
                                  Total O  = 5.550622e+01

----------------------------Distribution of species----------------------------

                                               Log       Log       Log    mole V
   Species          Molality    Activity  Molality  Activity     Gamma   cm³/mol

   H+              3.225e-06   2.761e-06    -5.491    -5.559    -0.067      0.00
   OH-             1.626e-09   1.324e-09    -8.789    -8.878    -0.089     -4.59
   H2O             5.551e+01   9.983e-01     1.744    -0.001     0.000     18.03
Amm           5.006e-02
   AmmH+           5.006e-02   4.026e-02    -1.301    -1.395    -0.095     17.46
   Amm             3.264e-06   3.301e-06    -5.486    -5.481     0.005     23.71
Cl            5.006e-02
   Cl-             5.006e-02   4.092e-02    -1.301    -1.388    -0.088     17.70
   HCl             4.005e-08   4.207e-08    -7.397    -7.376     0.021     19.32
H(0)          2.021e-15
   H2              1.011e-15   1.023e-15   -14.995   -14.990     0.005     13.90
O(0)          0.000e+00
   O2              0.000e+00   0.000e+00   -66.732   -66.727     0.005     29.24

------------------------------Saturation indices-------------------------------

  Phase               SI** log IAP   log K(285 K,   1 atm)

  Amm(g)           -7.55     -5.48    2.07  Amm
  H2(g)           -11.92    -14.99   -3.07  H2
  H2O(g)           -1.84     -0.00    1.84  H2O
  O2(g)           -63.94    -66.73   -2.79  O2

**For a gas, SI = log10(fugacity). Fugacity = pressure * phi / 1 atm.
  For ideal gases, phi = 1.

Reaction step 7.

Using solution 1.	
Using temperature 1.	
Using pressure 1.	
Using reaction 1.	

Reaction 1.	

	  1.001e-01 moles of the following reaction have been added:

	                 Relative
	Reactant            moles

	AmmHCl               1.00000

	                 Relative
	Element             moles
	Amm                  1.00000
	Cl                   1.00000
	H                    1.00000

-----------------------------Solution composition------------------------------

	Elements           Molality       Moles

	Amm               1.001e-01   1.001e-01
	Cl                1.001e-01   1.001e-01

----------------------------Description of solution----------------------------

                                       pH  =   5.436      Charge balance
                                       pe  =  13.509      Adjusted to redox equilibrium
      Specific Conductance (µS/cm,  12°C)  = 9868
                          Density (g/cm³)  =   1.00125
                               Volume (L)  =   1.00410
                        Viscosity (mPa s)  =   1.21402
                        Activity of water  =   0.997
                 Ionic strength (mol/kgw)  =   1.001e-01
                       Mass of water (kg)  =   1.000e+00
                 Total alkalinity (eq/kg)  =   7.082e-14
                         Temperature (°C)  =  12.50
                  Electrical balance (eq)  =   1.617e-11
 Percent error, 100*(Cat-|An|)/(Cat+|An|)  =   0.00
                               Iterations  =  12
                                  Total H  = 1.111126e+02
                                  Total O  = 5.550622e+01

----------------------------Distribution of species----------------------------

                                               Log       Log       Log    mole V
   Species          Molality    Activity  Molality  Activity     Gamma   cm³/mol

   H+              4.429e-06   3.667e-06    -5.354    -5.436    -0.082      0.00
   OH-             1.301e-09   9.955e-10    -8.886    -9.002    -0.116     -4.46
   H2O             5.551e+01   9.966e-01     1.744    -0.001     0.000     18.03
Amm           1.001e-01
   AmmH+           1.001e-01   7.497e-02    -0.999    -1.125    -0.126     17.56
   Amm             4.523e-06   4.628e-06    -5.345    -5.335     0.010     23.71
Cl            1.001e-01
   Cl-             1.001e-01   7.714e-02    -0.999    -1.113    -0.113     17.77
   HCl             9.547e-08   1.053e-07    -7.020    -6.978     0.043     19.32
H(0)          0.000e+00
   H2              0.000e+00   0.000e+00   -40.992   -40.982     0.011     13.90
O(0)          3.513e-15
   O2              1.757e-15   1.797e-15   -14.755   -14.745     0.010     29.24

------------------------------Saturation indices-------------------------------

  Phase               SI** log IAP   log K(285 K,   1 atm)

  Amm(g)           -7.40     -5.33    2.07  Amm
  H2(g)           -37.91    -40.98   -3.07  H2
  H2O(g)           -1.84     -0.00    1.84  H2O
  O2(g)           -11.96    -14.75   -2.79  O2

**For a gas, SI = log10(fugacity). Fugacity = pressure * phi / 1 atm.
  For ideal gases, phi = 1.

Reaction step 8.

Using solution 1.	
Using temperature 1.	
Using pressure 1.	
Using reaction 1.	

Reaction 1.	

	  2.003e-01 moles of the following reaction have been added:

	                 Relative
	Reactant            moles

	AmmHCl               1.00000

	                 Relative
	Element             moles
	Amm                  1.00000
	Cl                   1.00000
	H                    1.00000

-----------------------------Solution composition------------------------------

	Elements           Molality       Moles

	Amm               2.003e-01   2.003e-01
	Cl                2.003e-01   2.003e-01

----------------------------Description of solution----------------------------

                                       pH  =   5.319      Charge balance
                                       pe  =   1.204      Adjusted to redox equilibrium
      Specific Conductance (µS/cm,  12°C)  = 19149
                          Density (g/cm³)  =   1.00300
                               Volume (L)  =   1.00769
                        Viscosity (mPa s)  =   1.21012
                        Activity of water  =   0.993
                 Ionic strength (mol/kgw)  =   2.003e-01
                       Mass of water (kg)  =   1.000e+00
                 Total alkalinity (eq/kg)  =   8.132e-17
                         Temperature (°C)  =  12.50
                  Electrical balance (eq)  =   5.163e-14
 Percent error, 100*(Cat-|An|)/(Cat+|An|)  =   0.00
                               Iterations  =  11
                                  Total H  = 1.112127e+02
                                  Total O  = 5.550622e+01

----------------------------Distribution of species----------------------------

                                               Log       Log       Log    mole V
   Species          Molality    Activity  Molality  Activity     Gamma   cm³/mol

   H+              5.986e-06   4.792e-06    -5.223    -5.319    -0.097      0.00
   OH-             1.067e-09   7.592e-10    -8.972    -9.120    -0.148     -4.24
   H2O             5.551e+01   9.932e-01     1.744    -0.003     0.000     18.03
Amm           2.003e-01
   AmmH+           2.003e-01   1.373e-01    -0.698    -0.862    -0.164     17.70
   Amm             6.196e-06   6.488e-06    -5.208    -5.188     0.020     23.71
Cl            2.003e-01
   Cl-             2.003e-01   1.442e-01    -0.698    -0.841    -0.143     17.89
   HCl             2.114e-07   2.572e-07    -6.675    -6.590     0.085     19.32
H(0)          1.380e-16
   H2              6.900e-17   7.242e-17   -16.161   -16.140     0.021     13.90
O(0)          0.000e+00
   O2              0.000e+00   0.000e+00   -64.452   -64.432     0.020     29.24

------------------------------Saturation indices-------------------------------

  Phase               SI** log IAP   log K(285 K,   1 atm)

  Amm(g)           -7.26     -5.19    2.07  Amm
  H2(g)           -13.07    -16.14   -3.07  H2
  H2O(g)           -1.84     -0.00    1.84  H2O
  O2(g)           -61.64    -64.43   -2.79  O2

**For a gas, SI = log10(fugacity). Fugacity = pressure * phi / 1 atm.
  For ideal gases, phi = 1.

Reaction step 9.

Using solution 1.	
Using temperature 1.	
Using pressure 1.	
Using reaction 1.	

Reaction 1.	

	  5.007e-01 moles of the following reaction have been added:

	                 Relative
	Reactant            moles

	AmmHCl               1.00000

	                 Relative
	Element             moles
	Amm                  1.00000
	Cl                   1.00000
	H                    1.00000

-----------------------------Solution composition------------------------------

	Elements           Molality       Moles

	Amm               5.006e-01   5.007e-01
	Cl                5.006e-01   5.007e-01

----------------------------Description of solution----------------------------

                                       pH  =   5.179      Charge balance
                                       pe  =  13.773      Adjusted to redox equilibrium
      Specific Conductance (µS/cm,  12°C)  = 46240
                          Density (g/cm³)  =   1.00801
                               Volume (L)  =   1.01862
                        Viscosity (mPa s)  =   1.19855
                        Activity of water  =   0.983
                 Ionic strength (mol/kgw)  =   5.006e-01
                       Mass of water (kg)  =   1.000e+00
                 Total alkalinity (eq/kg)  =   1.530e-15
                         Temperature (°C)  =  12.50
                  Electrical balance (eq)  =   1.771e-12
 Percent error, 100*(Cat-|An|)/(Cat+|An|)  =   0.00
                               Iterations  =  13
                                  Total H  = 1.115131e+02
                                  Total O  = 5.550622e+01

----------------------------Distribution of species----------------------------

                                               Log       Log       Log    mole V
   Species          Molality    Activity  Molality  Activity     Gamma   cm³/mol

   H+              8.618e-06   6.616e-06    -5.065    -5.179    -0.115      0.00
   OH-             8.537e-10   5.443e-10    -9.069    -9.264    -0.196     -3.69
   H2O             5.551e+01   9.830e-01     1.744    -0.007     0.000     18.03
Amm           5.006e-01
   AmmH+           5.006e-01   2.988e-01    -0.300    -0.525    -0.224     17.96
   Amm             9.112e-06   1.023e-05    -5.040    -4.990     0.050     23.71
Cl            5.006e-01
   Cl-             5.006e-01   3.279e-01    -0.300    -0.484    -0.184     18.11
   HCl             4.944e-07   8.076e-07    -6.306    -6.093     0.213     19.32
H(0)          0.000e+00
   H2              0.000e+00   0.000e+00   -41.052   -40.999     0.053     13.90
O(0)          3.376e-15
   O2              1.688e-15   1.894e-15   -14.773   -14.723     0.050     29.24

------------------------------Saturation indices-------------------------------

  Phase               SI** log IAP   log K(285 K,   1 atm)

  Amm(g)           -7.06     -4.99    2.07  Amm
  H2(g)           -37.93    -41.00   -3.07  H2
  H2O(g)           -1.85     -0.01    1.84  H2O
  O2(g)           -11.93    -14.72   -2.79  O2

**For a gas, SI = log10(fugacity). Fugacity = pressure * phi / 1 atm.
  For ideal gases, phi = 1.

Reaction step 10.

Using solution 1.	
Using temperature 1.	
Using pressure 1.	
Using reaction 1.	

Reaction 1.	

	  6.008e-01 moles of the following reaction have been added:

	                 Relative
	Reactant            moles

	AmmHCl               1.00000

	                 Relative
	Element             moles
	Amm                  1.00000
	Cl                   1.00000
	H                    1.00000

-----------------------------Solution composition------------------------------

	Elements           Molality       Moles

	Amm               6.008e-01   6.008e-01
	Cl                6.008e-01   6.008e-01

----------------------------Description of solution----------------------------

                                       pH  =   5.154      Charge balance
                                       pe  =   1.154      Adjusted to redox equilibrium
      Specific Conductance (µS/cm,  12°C)  = 55112
                          Density (g/cm³)  =   1.00962
                               Volume (L)  =   1.02230
                        Viscosity (mPa s)  =   1.19486
                        Activity of water  =   0.980
                 Ionic strength (mol/kgw)  =   6.008e-01
                       Mass of water (kg)  =   1.000e+00
                 Total alkalinity (eq/kg)  =  -1.453e-16
                         Temperature (°C)  =  12.50
                  Electrical balance (eq)  =   8.547e-14
 Percent error, 100*(Cat-|An|)/(Cat+|An|)  =   0.00
                               Iterations  =  12
                                  Total H  = 1.116132e+02
                                  Total O  = 5.550622e+01

----------------------------Distribution of species----------------------------

                                               Log       Log       Log    mole V
   Species          Molality    Activity  Molality  Activity     Gamma   cm³/mol

   H+              9.213e-06   7.019e-06    -5.036    -5.154    -0.118      0.00
   OH-             8.205e-10   5.113e-10    -9.086    -9.291    -0.205     -3.53
   H2O             5.551e+01   9.796e-01     1.744    -0.009     0.000     18.03
Amm           6.008e-01
   AmmH+           6.008e-01   3.479e-01    -0.221    -0.459    -0.237     18.02
   Amm             9.773e-06   1.122e-05    -5.010    -4.950     0.060     23.71
Cl            6.008e-01
   Cl-             6.008e-01   3.864e-01    -0.221    -0.413    -0.192     18.17
   HCl             5.604e-07   1.010e-06    -6.252    -5.996     0.256     19.32
H(0)          3.380e-16
   H2              1.690e-16   1.954e-16   -15.772   -15.709     0.063     13.90
O(0)          0.000e+00
   O2              0.000e+00   0.000e+00   -65.366   -65.306     0.060     29.24

------------------------------Saturation indices-------------------------------

  Phase               SI** log IAP   log K(285 K,   1 atm)

  Amm(g)           -7.02     -4.95    2.07  Amm
  H2(g)           -12.64    -15.71   -3.07  H2
  H2O(g)           -1.85     -0.01    1.84  H2O
  O2(g)           -62.52    -65.31   -2.79  O2

**For a gas, SI = log10(fugacity). Fugacity = pressure * phi / 1 atm.
  For ideal gases, phi = 1.

------------------
End of simulation.
------------------

------------------------------------
Reading input data for simulation 4.
------------------------------------

	USE solution 1
	REACTION_TEMPERATURE
	 15.000000
	REACTION_PRESSURE
	 1.000000
	REACTION
	 AmmHCl 1
	0 0.010010 0.020020 0.050000 0.050060 0.070000 0.100000 0.100130 0.200000 0.200260 0.300000 0.500000 0.500650 1.000000 1.500000 2.000000 3.000000 4.000000 5.000000 
	USER_GRAPH
	 -headings 15.C_1.atm
	 -axis_titles "NH4Cl / (mol/kg H2O)" "NH4Cl molar volume / (cm3/mol)"
	10 data 0, 35.535000, 35.029000, 35.869000, 35.113000, 35.744000, 35.941000, 35.283000, 36.836000, 36.021000, 36.087000, 36.605000, 36.602000, 36.899000, 37.271000, 37.651000, 38.095000, 38.312000, 38.988000, 
	20 dim d(19)
	30 read d(1), d(2), d(3), d(4), d(5), d(6), d(7), d(8), d(9), d(10), d(11), d(12), d(13), d(14), d(15), d(16), d(17), d(18), d(19), 
	40 if step_no = 1 then put(rho, 10)
	50 if step_no > 1 then Vmol = (1e3 + tot("Cl") * 53.4917) / (tot("Cl") * rho) - 1e3 / (tot("Cl") * get(10))
	60 if step_no = 1 then dif = 0 else dif = Vmol - d(step_no)
	62 if tot("Cl") > 10 or tc > 200 or pressure > 1e3 then dif = 0 
	90 if step_no = 19 then put(step_no + get(1), 1)
	100 if step_no = 1 then goto 150
	110 plot_xy tot("Cl"), d(step_no), symbol = Diamond, line_w = 0, color = Green
	120 plot_xy tot("Cl"), Vmol, symbol = None, color = Green
	150 end
	END
-----------------------------------------
Beginning of batch-reaction calculations.
-----------------------------------------

Reaction step 1.

Using solution 1.	
Using temperature 1.	
Using pressure 1.	
Using reaction 1.	

Reaction 1.	

	  0.000e+00 moles of the following reaction have been added:

	                 Relative
	Reactant            moles

	AmmHCl               1.00000

	                 Relative
	Element             moles
	Amm                  1.00000
	Cl                   1.00000
	H                    1.00000

-----------------------------Solution composition------------------------------

	Elements           Molality       Moles

	Pure water     

----------------------------Description of solution----------------------------

                                       pH  =   7.172      Charge balance
                                       pe  =  -0.315      Adjusted to redox equilibrium
      Specific Conductance (µS/cm,  15°C)  = 0
                          Density (g/cm³)  =   0.99910
                               Volume (L)  =   1.00090
                        Viscosity (mPa s)  =   1.13757
                        Activity of water  =   1.000
                 Ionic strength (mol/kgw)  =   6.737e-08
                       Mass of water (kg)  =   1.000e+00
                 Total alkalinity (eq/kg)  =   9.842e-17
                         Temperature (°C)  =  15.00
                  Electrical balance (eq)  =  -9.842e-17
 Percent error, 100*(Cat-|An|)/(Cat+|An|)  =  -0.00
                               Iterations  =   7
                                  Total H  = 1.110124e+02
                                  Total O  = 5.550622e+01

----------------------------Distribution of species----------------------------

                                               Log       Log       Log    mole V
   Species          Molality    Activity  Molality  Activity     Gamma   cm³/mol

   OH-             6.737e-08   6.735e-08    -7.172    -7.172    -0.000     -4.65
   H+              6.737e-08   6.735e-08    -7.172    -7.172    -0.000      0.00
   H2O             5.551e+01   1.000e+00     1.744    -0.000     0.000     18.03
H(0)          3.042e-17
   H2              1.521e-17   1.521e-17   -16.818   -16.818     0.000     14.15
O(0)          0.000e+00
   O2              0.000e+00   0.000e+00   -62.169   -62.169     0.000     29.51

------------------------------Saturation indices-------------------------------

  Phase               SI** log IAP   log K(288 K,   1 atm)

  H2(g)           -13.74    -16.82   -3.08  H2
  H2O(g)           -1.77     -0.00    1.77  H2O
  O2(g)           -59.36    -62.17   -2.81  O2

**For a gas, SI = log10(fugacity). Fugacity = pressure * phi / 1 atm.
  For ideal gases, phi = 1.

Reaction step 2.

Using solution 1.	
Using temperature 1.	
Using pressure 1.	
Using reaction 1.	

Reaction 1.	

	  1.001e-02 moles of the following reaction have been added:

	                 Relative
	Reactant            moles

	AmmHCl               1.00000

	                 Relative
	Element             moles
	Amm                  1.00000
	Cl                   1.00000
	H                    1.00000

-----------------------------Solution composition------------------------------

	Elements           Molality       Moles

	Amm               1.001e-02   1.001e-02
	Cl                1.001e-02   1.001e-02

----------------------------Description of solution----------------------------

                                       pH  =   5.824      Charge balance
                                       pe  =  12.867      Adjusted to redox equilibrium
      Specific Conductance (µS/cm,  15°C)  = 1141
                          Density (g/cm³)  =   0.99928
                               Volume (L)  =   1.00125
                        Viscosity (mPa s)  =   1.13770
                        Activity of water  =   1.000
                 Ionic strength (mol/kgw)  =   1.001e-02
                       Mass of water (kg)  =   1.000e+00
                 Total alkalinity (eq/kg)  =   9.390e-15
                         Temperature (°C)  =  15.00
                  Electrical balance (eq)  =   1.892e-12
 Percent error, 100*(Cat-|An|)/(Cat+|An|)  =   0.00
                               Iterations  =  11
                                  Total H  = 1.110224e+02
                                  Total O  = 5.550622e+01

----------------------------Distribution of species----------------------------

                                               Log       Log       Log    mole V
   Species          Molality    Activity  Molality  Activity     Gamma   cm³/mol

   H+              1.639e-06   1.499e-06    -5.785    -5.824    -0.039      0.00
   OH-             3.355e-09   3.025e-09    -8.474    -8.519    -0.045     -4.56
   H2O             5.551e+01   9.997e-01     1.744    -0.000     0.000     18.03
Amm           1.001e-02
   AmmH+           1.001e-02   8.994e-03    -2.000    -2.046    -0.046     17.48
   Amm             1.641e-06   1.645e-06    -5.785    -5.784     0.001     23.89
Cl            1.001e-02
   Cl-             1.001e-02   9.031e-03    -2.000    -2.044    -0.045     17.74
   HCl             4.914e-09   4.963e-09    -8.309    -8.304     0.004     19.56
H(0)          0.000e+00
   H2              0.000e+00   0.000e+00   -40.488   -40.487     0.001     14.15
O(0)          2.945e-15
   O2              1.473e-15   1.476e-15   -14.832   -14.831     0.001     29.51

------------------------------Saturation indices-------------------------------

  Phase               SI** log IAP   log K(288 K,   1 atm)

  Amm(g)           -7.80     -5.78    2.01  Amm
  H2(g)           -37.41    -40.49   -3.08  H2
  H2O(g)           -1.77     -0.00    1.77  H2O
  O2(g)           -12.02    -14.83   -2.81  O2

**For a gas, SI = log10(fugacity). Fugacity = pressure * phi / 1 atm.
  For ideal gases, phi = 1.

Reaction step 3.

Using solution 1.	
Using temperature 1.	
Using pressure 1.	
Using reaction 1.	

Reaction 1.	

	  2.002e-02 moles of the following reaction have been added:

	                 Relative
	Reactant            moles

	AmmHCl               1.00000

	                 Relative
	Element             moles
	Amm                  1.00000
	Cl                   1.00000
	H                    1.00000

-----------------------------Solution composition------------------------------

	Elements           Molality       Moles

	Amm               2.002e-02   2.002e-02
	Cl                2.002e-02   2.002e-02

----------------------------Description of solution----------------------------

                                       pH  =   5.689      Charge balance
                                       pe  =   0.218      Adjusted to redox equilibrium
      Specific Conductance (µS/cm,  15°C)  = 2235
                          Density (g/cm³)  =   0.99946
                               Volume (L)  =   1.00161
                        Viscosity (mPa s)  =   1.13753
                        Activity of water  =   0.999
                 Ionic strength (mol/kgw)  =   2.002e-02
                       Mass of water (kg)  =   1.000e+00
                 Total alkalinity (eq/kg)  =   2.961e-12
                         Temperature (°C)  =  15.00
                  Electrical balance (eq)  =   1.692e-10
 Percent error, 100*(Cat-|An|)/(Cat+|An|)  =   0.00
                               Iterations  =  10
                                  Total H  = 1.110325e+02
                                  Total O  = 5.550622e+01

----------------------------Distribution of species----------------------------

                                               Log       Log       Log    mole V
   Species          Molality    Activity  Molality  Activity     Gamma   cm³/mol

   H+              2.296e-06   2.046e-06    -5.639    -5.689    -0.050      0.00
   OH-             2.551e-09   2.216e-09    -8.593    -8.654    -0.061     -4.51
   H2O             5.551e+01   9.993e-01     1.744    -0.000     0.000     18.03
Amm           2.002e-02
   AmmH+           2.002e-02   1.729e-02    -1.699    -1.762    -0.064     17.52
   Amm             2.306e-06   2.317e-06    -5.637    -5.635     0.002     23.89
Cl            2.002e-02
   Cl-             2.002e-02   1.742e-02    -1.699    -1.759    -0.060     17.77
   HCl             1.281e-08   1.306e-08    -7.893    -7.884     0.009     19.56
H(0)          2.399e-15
   H2              1.199e-15   1.205e-15   -14.921   -14.919     0.002     14.15
O(0)          0.000e+00
   O2              0.000e+00   0.000e+00   -65.970   -65.968     0.002     29.51

------------------------------Saturation indices-------------------------------

  Phase               SI** log IAP   log K(288 K,   1 atm)

  Amm(g)           -7.65     -5.64    2.01  Amm
  H2(g)           -11.84    -14.92   -3.08  H2
  H2O(g)           -1.77     -0.00    1.77  H2O
  O2(g)           -63.16    -65.97   -2.81  O2

**For a gas, SI = log10(fugacity). Fugacity = pressure * phi / 1 atm.
  For ideal gases, phi = 1.

Reaction step 4.

Using solution 1.	
Using temperature 1.	
Using pressure 1.	
Using reaction 1.	

Reaction 1.	

	  5.000e-02 moles of the following reaction have been added:

	                 Relative
	Reactant            moles

	AmmHCl               1.00000

	                 Relative
	Element             moles
	Amm                  1.00000
	Cl                   1.00000
	H                    1.00000

-----------------------------Solution composition------------------------------

	Elements           Molality       Moles

	Amm               5.000e-02   5.000e-02
	Cl                5.000e-02   5.000e-02

----------------------------Description of solution----------------------------

                                       pH  =   5.518      Charge balance
                                       pe  =  13.094      Adjusted to redox equilibrium
      Specific Conductance (µS/cm,  15°C)  = 5390
                          Density (g/cm³)  =   1.00000
                               Volume (L)  =   1.00267
                        Viscosity (mPa s)  =   1.13680
                        Activity of water  =   0.998
                 Ionic strength (mol/kgw)  =   5.000e-02
                       Mass of water (kg)  =   1.000e+00
                 Total alkalinity (eq/kg)  =   5.444e-16
                         Temperature (°C)  =  15.00
                  Electrical balance (eq)  =   1.801e-13
 Percent error, 100*(Cat-|An|)/(Cat+|An|)  =   0.00
                               Iterations  =  12
                                  Total H  = 1.110624e+02
                                  Total O  = 5.550622e+01

----------------------------Distribution of species----------------------------

                                               Log       Log       Log    mole V
   Species          Molality    Activity  Molality  Activity     Gamma   cm³/mol

   H+              3.547e-06   3.035e-06    -5.450    -5.518    -0.068      0.00
   OH-             1.833e-09   1.492e-09    -8.737    -8.826    -0.089     -4.41
   H2O             5.551e+01   9.983e-01     1.744    -0.001     0.000     18.03
Amm           5.000e-02
   AmmH+           5.000e-02   4.019e-02    -1.301    -1.396    -0.095     17.61
   Amm             3.588e-06   3.630e-06    -5.445    -5.440     0.005     23.89
Cl            5.000e-02
   Cl-             5.000e-02   4.085e-02    -1.301    -1.389    -0.088     17.84
   HCl             4.327e-08   4.544e-08    -7.364    -7.343     0.021     19.56
H(0)          0.000e+00
   H2              0.000e+00   0.000e+00   -40.335   -40.329     0.005     14.15
O(0)          1.408e-15
   O2              7.039e-16   7.120e-16   -15.153   -15.148     0.005     29.51

------------------------------Saturation indices-------------------------------

  Phase               SI** log IAP   log K(288 K,   1 atm)

  Amm(g)           -7.45     -5.44    2.01  Amm
  H2(g)           -37.25    -40.33   -3.08  H2
  H2O(g)           -1.77     -0.00    1.77  H2O
  O2(g)           -12.34    -15.15   -2.81  O2

**For a gas, SI = log10(fugacity). Fugacity = pressure * phi / 1 atm.
  For ideal gases, phi = 1.

Reaction step 5.

Using solution 1.	
Using temperature 1.	
Using pressure 1.	
Using reaction 1.	

Reaction 1.	

	  5.006e-02 moles of the following reaction have been added:

	                 Relative
	Reactant            moles

	AmmHCl               1.00000

	                 Relative
	Element             moles
	Amm                  1.00000
	Cl                   1.00000
	H                    1.00000

-----------------------------Solution composition------------------------------

	Elements           Molality       Moles

	Amm               5.006e-02   5.006e-02
	Cl                5.006e-02   5.006e-02

----------------------------Description of solution----------------------------

                                       pH  =   5.518      Charge balance
                                       pe  =   0.425      Adjusted to redox equilibrium
      Specific Conductance (µS/cm,  15°C)  = 5396
                          Density (g/cm³)  =   1.00000
                               Volume (L)  =   1.00268
                        Viscosity (mPa s)  =   1.13679
                        Activity of water  =   0.998
                 Ionic strength (mol/kgw)  =   5.006e-02
                       Mass of water (kg)  =   1.000e+00
                 Total alkalinity (eq/kg)  =   3.109e-16
                         Temperature (°C)  =  15.00
                  Electrical balance (eq)  =   9.089e-14
 Percent error, 100*(Cat-|An|)/(Cat+|An|)  =   0.00
                               Iterations  =  11
                                  Total H  = 1.110625e+02
                                  Total O  = 5.550622e+01

----------------------------Distribution of species----------------------------

                                               Log       Log       Log    mole V
   Species          Molality    Activity  Molality  Activity     Gamma   cm³/mol

   H+              3.549e-06   3.037e-06    -5.450    -5.518    -0.068      0.00
   OH-             1.832e-09   1.491e-09    -8.737    -8.826    -0.089     -4.41
   H2O             5.551e+01   9.983e-01     1.744    -0.001     0.000     18.03
Amm           5.006e-02
   AmmH+           5.006e-02   4.023e-02    -1.301    -1.395    -0.095     17.61
   Amm             3.590e-06   3.632e-06    -5.445    -5.440     0.005     23.89
Cl            5.006e-02
   Cl-             5.006e-02   4.089e-02    -1.301    -1.388    -0.088     17.84
   HCl             4.334e-08   4.551e-08    -7.363    -7.342     0.021     19.56
H(0)          2.017e-15
   H2              1.009e-15   1.021e-15   -14.996   -14.991     0.005     14.15
O(0)          0.000e+00
   O2              0.000e+00   0.000e+00   -65.830   -65.825     0.005     29.51

------------------------------Saturation indices-------------------------------

  Phase               SI** log IAP   log K(288 K,   1 atm)

  Amm(g)           -7.45     -5.44    2.01  Amm
  H2(g)           -11.91    -14.99   -3.08  H2
  H2O(g)           -1.77     -0.00    1.77  H2O
  O2(g)           -63.01    -65.82   -2.81  O2

**For a gas, SI = log10(fugacity). Fugacity = pressure * phi / 1 atm.
  For ideal gases, phi = 1.

Reaction step 6.

Using solution 1.	
Using temperature 1.	
Using pressure 1.	
Using reaction 1.	

Reaction 1.	

	  7.000e-02 moles of the following reaction have been added:

	                 Relative
	Reactant            moles

	AmmHCl               1.00000

	                 Relative
	Element             moles
	Amm                  1.00000
	Cl                   1.00000
	H                    1.00000

-----------------------------Solution composition------------------------------

	Elements           Molality       Moles

	Amm               7.000e-02   7.000e-02
	Cl                7.000e-02   7.000e-02

----------------------------Description of solution----------------------------

                                       pH  =   5.457      Charge balance
                                       pe  =  13.251      Adjusted to redox equilibrium
      Specific Conductance (µS/cm,  15°C)  = 7435
                          Density (g/cm³)  =   1.00035
                               Volume (L)  =   1.00339
                        Viscosity (mPa s)  =   1.13624
                        Activity of water  =   0.998
                 Ionic strength (mol/kgw)  =   7.000e-02
                       Mass of water (kg)  =   1.000e+00
                 Total alkalinity (eq/kg)  =   1.248e-14
                         Temperature (°C)  =  15.00
                  Electrical balance (eq)  =   4.063e-12
 Percent error, 100*(Cat-|An|)/(Cat+|An|)  =   0.00
                               Iterations  =  12
                                  Total H  = 1.110824e+02
                                  Total O  = 5.550622e+01

----------------------------Distribution of species----------------------------

                                               Log       Log       Log    mole V
   Species          Molality    Activity  Molality  Activity     Gamma   cm³/mol

   H+              4.144e-06   3.489e-06    -5.383    -5.457    -0.075      0.00
   OH-             1.640e-09   1.297e-09    -8.785    -8.887    -0.102     -4.35
   H2O             5.551e+01   9.976e-01     1.744    -0.001     0.000     18.03
Amm           7.000e-02
   AmmH+           7.000e-02   5.444e-02    -1.155    -1.264    -0.109     17.65
   Amm             4.209e-06   4.277e-06    -5.376    -5.369     0.007     23.89
Cl            7.000e-02
   Cl-             7.000e-02   5.562e-02    -1.155    -1.255    -0.100     17.88
   HCl             6.643e-08   7.115e-08    -7.178    -7.148     0.030     19.56
H(0)          0.000e+00
   H2              0.000e+00   0.000e+00   -40.530   -40.522     0.007     14.15
O(0)          3.401e-15
   O2              1.700e-15   1.728e-15   -14.769   -14.762     0.007     29.51

------------------------------Saturation indices-------------------------------

  Phase               SI** log IAP   log K(288 K,   1 atm)

  Amm(g)           -7.38     -5.37    2.01  Amm
  H2(g)           -37.45    -40.52   -3.08  H2
  H2O(g)           -1.77     -0.00    1.77  H2O
  O2(g)           -11.95    -14.76   -2.81  O2

**For a gas, SI = log10(fugacity). Fugacity = pressure * phi / 1 atm.
  For ideal gases, phi = 1.

Reaction step 7.

Using solution 1.	
Using temperature 1.	
Using pressure 1.	
Using reaction 1.	

Reaction 1.	

	  1.000e-01 moles of the following reaction have been added:

	                 Relative
	Reactant            moles

	AmmHCl               1.00000

	                 Relative
	Element             moles
	Amm                  1.00000
	Cl                   1.00000
	H                    1.00000

-----------------------------Solution composition------------------------------

	Elements           Molality       Moles

	Amm               1.000e-01   1.000e-01
	Cl                1.000e-01   1.000e-01

----------------------------Description of solution----------------------------

                                       pH  =   5.395      Charge balance
                                       pe  =  13.295      Adjusted to redox equilibrium
      Specific Conductance (µS/cm,  15°C)  = 10448
                          Density (g/cm³)  =   1.00088
                               Volume (L)  =   1.00446
                        Viscosity (mPa s)  =   1.13538
                        Activity of water  =   0.997
                 Ionic strength (mol/kgw)  =   1.000e-01
                       Mass of water (kg)  =   1.000e+00
                 Total alkalinity (eq/kg)  =   4.830e-13
                         Temperature (°C)  =  15.00
                  Electrical balance (eq)  =   6.359e-11
 Percent error, 100*(Cat-|An|)/(Cat+|An|)  =   0.00
                               Iterations  =  12
                                  Total H  = 1.111124e+02
                                  Total O  = 5.550622e+01

----------------------------Distribution of species----------------------------

                                               Log       Log       Log    mole V
   Species          Molality    Activity  Molality  Activity     Gamma   cm³/mol

   H+              4.870e-06   4.030e-06    -5.312    -5.395    -0.082      0.00
   OH-             1.467e-09   1.122e-09    -8.834    -8.950    -0.116     -4.27
   H2O             5.551e+01   9.966e-01     1.744    -0.001     0.000     18.03
Amm           1.000e-01
   AmmH+           1.000e-01   7.480e-02    -1.000    -1.126    -0.126     17.71
   Amm             4.972e-06   5.088e-06    -5.303    -5.293     0.010     23.89
Cl            1.000e-01
   Cl-             1.000e-01   7.697e-02    -1.000    -1.114    -0.114     17.92
   HCl             1.031e-07   1.137e-07    -6.987    -6.944     0.043     19.56
H(0)          0.000e+00
   H2              0.000e+00   0.000e+00   -40.495   -40.485     0.010     14.15
O(0)          2.832e-15
   O2              1.416e-15   1.449e-15   -14.849   -14.839     0.010     29.51

------------------------------Saturation indices-------------------------------

  Phase               SI** log IAP   log K(288 K,   1 atm)

  Amm(g)           -7.31     -5.29    2.01  Amm
  H2(g)           -37.41    -40.48   -3.08  H2
  H2O(g)           -1.77     -0.00    1.77  H2O
  O2(g)           -12.03    -14.84   -2.81  O2

**For a gas, SI = log10(fugacity). Fugacity = pressure * phi / 1 atm.
  For ideal gases, phi = 1.

Reaction step 8.

Using solution 1.	
Using temperature 1.	
Using pressure 1.	
Using reaction 1.	

Reaction 1.	

	  1.001e-01 moles of the following reaction have been added:

	                 Relative
	Reactant            moles

	AmmHCl               1.00000

	                 Relative
	Element             moles
	Amm                  1.00000
	Cl                   1.00000
	H                    1.00000

-----------------------------Solution composition------------------------------

	Elements           Molality       Moles

	Amm               1.001e-01   1.001e-01
	Cl                1.001e-01   1.001e-01

----------------------------Description of solution----------------------------

                                       pH  =   5.394      Charge balance
                                       pe  =  13.319      Adjusted to redox equilibrium
      Specific Conductance (µS/cm,  15°C)  = 10461
                          Density (g/cm³)  =   1.00088
                               Volume (L)  =   1.00447
                        Viscosity (mPa s)  =   1.13537
                        Activity of water  =   0.997
                 Ionic strength (mol/kgw)  =   1.001e-01
                       Mass of water (kg)  =   1.000e+00
                 Total alkalinity (eq/kg)  =   4.896e-13
                         Temperature (°C)  =  15.00
                  Electrical balance (eq)  =   6.420e-11
 Percent error, 100*(Cat-|An|)/(Cat+|An|)  =   0.00
                               Iterations  =  12
                                  Total H  = 1.111126e+02
                                  Total O  = 5.550622e+01

----------------------------Distribution of species----------------------------

                                               Log       Log       Log    mole V
   Species          Molality    Activity  Molality  Activity     Gamma   cm³/mol

   H+              4.873e-06   4.033e-06    -5.312    -5.394    -0.082      0.00
   OH-             1.466e-09   1.121e-09    -8.834    -8.950    -0.117     -4.27
   H2O             5.551e+01   9.966e-01     1.744    -0.001     0.000     18.03
Amm           1.001e-01
   AmmH+           1.001e-01   7.489e-02    -0.999    -1.126    -0.126     17.71
   Amm             4.975e-06   5.091e-06    -5.303    -5.293     0.010     23.89
Cl            1.001e-01
   Cl-             1.001e-01   7.706e-02    -0.999    -1.113    -0.114     17.92
   HCl             1.033e-07   1.139e-07    -6.986    -6.943     0.043     19.56
H(0)          0.000e+00
   H2              0.000e+00   0.000e+00   -40.542   -40.531     0.011     14.15
O(0)          3.513e-15
   O2              1.757e-15   1.798e-15   -14.755   -14.745     0.010     29.51

------------------------------Saturation indices-------------------------------

  Phase               SI** log IAP   log K(288 K,   1 atm)

  Amm(g)           -7.31     -5.29    2.01  Amm
  H2(g)           -37.46    -40.53   -3.08  H2
  H2O(g)           -1.77     -0.00    1.77  H2O
  O2(g)           -11.93    -14.75   -2.81  O2

**For a gas, SI = log10(fugacity). Fugacity = pressure * phi / 1 atm.
  For ideal gases, phi = 1.

Reaction step 9.

Using solution 1.	
Using temperature 1.	
Using pressure 1.	
Using reaction 1.	

Reaction 1.	

	  2.000e-01 moles of the following reaction have been added:

	                 Relative
	Reactant            moles

	AmmHCl               1.00000

	                 Relative
	Element             moles
	Amm                  1.00000
	Cl                   1.00000
	H                    1.00000

-----------------------------Solution composition------------------------------

	Elements           Molality       Moles

	Amm               2.000e-01   2.000e-01
	Cl                2.000e-01   2.000e-01

----------------------------Description of solution----------------------------

                                       pH  =   5.278      Charge balance
                                       pe  =   0.579      Adjusted to redox equilibrium
      Specific Conductance (µS/cm,  15°C)  = 20241
                          Density (g/cm³)  =   1.00260
                               Volume (L)  =   1.00808
                        Viscosity (mPa s)  =   1.13235
                        Activity of water  =   0.993
                 Ionic strength (mol/kgw)  =   2.000e-01
                       Mass of water (kg)  =   1.000e+00
                 Total alkalinity (eq/kg)  =   4.850e-17
                         Temperature (°C)  =  15.00
                  Electrical balance (eq)  =   2.628e-16
 Percent error, 100*(Cat-|An|)/(Cat+|An|)  =   0.00
                               Iterations  =  12
                                  Total H  = 1.112124e+02
                                  Total O  = 5.550622e+01

----------------------------Distribution of species----------------------------

                                               Log       Log       Log    mole V
   Species          Molality    Activity  Molality  Activity     Gamma   cm³/mol

   H+              6.583e-06   5.267e-06    -5.182    -5.278    -0.097      0.00
   OH-             1.204e-09   8.555e-10    -8.919    -9.068    -0.148     -4.05
   H2O             5.551e+01   9.932e-01     1.744    -0.003     0.000     18.03
Amm           2.000e-01
   AmmH+           2.000e-01   1.370e-01    -0.699    -0.863    -0.164     17.84
   Amm             6.810e-06   7.131e-06    -5.167    -5.147     0.020     23.89
Cl            2.000e-01
   Cl-             2.000e-01   1.438e-01    -0.699    -0.842    -0.143     18.03
   HCl             2.282e-07   2.777e-07    -6.642    -6.556     0.085     19.56
H(0)          2.881e-15
   H2              1.441e-15   1.512e-15   -14.841   -14.820     0.021     14.15
O(0)          0.000e+00
   O2              0.000e+00   0.000e+00   -66.190   -66.170     0.020     29.51

------------------------------Saturation indices-------------------------------

  Phase               SI** log IAP   log K(288 K,   1 atm)

  Amm(g)           -7.16     -5.15    2.01  Amm
  H2(g)           -11.74    -14.82   -3.08  H2
  H2O(g)           -1.77     -0.00    1.77  H2O
  O2(g)           -63.36    -66.17   -2.81  O2

**For a gas, SI = log10(fugacity). Fugacity = pressure * phi / 1 atm.
  For ideal gases, phi = 1.

Reaction step 10.

Using solution 1.	
Using temperature 1.	
Using pressure 1.	
Using reaction 1.	

Reaction 1.	

	  2.003e-01 moles of the following reaction have been added:

	                 Relative
	Reactant            moles

	AmmHCl               1.00000

	                 Relative
	Element             moles
	Amm                  1.00000
	Cl                   1.00000
	H                    1.00000

-----------------------------Solution composition------------------------------

	Elements           Molality       Moles

	Amm               2.003e-01   2.003e-01
	Cl                2.003e-01   2.003e-01

----------------------------Description of solution----------------------------

                                       pH  =   5.278      Charge balance
                                       pe  =   1.256      Adjusted to redox equilibrium
      Specific Conductance (µS/cm,  15°C)  = 20266
                          Density (g/cm³)  =   1.00261
                               Volume (L)  =   1.00809
                        Viscosity (mPa s)  =   1.13234
                        Activity of water  =   0.993
                 Ionic strength (mol/kgw)  =   2.003e-01
                       Mass of water (kg)  =   1.000e+00
                 Total alkalinity (eq/kg)  =   4.551e-15
                         Temperature (°C)  =  15.00
                  Electrical balance (eq)  =   2.401e-12
 Percent error, 100*(Cat-|An|)/(Cat+|An|)  =   0.00
                               Iterations  =  11
                                  Total H  = 1.112127e+02
                                  Total O  = 5.550622e+01

----------------------------Distribution of species----------------------------

                                               Log       Log       Log    mole V
   Species          Molality    Activity  Molality  Activity     Gamma   cm³/mol

   H+              6.586e-06   5.269e-06    -5.181    -5.278    -0.097      0.00
   OH-             1.204e-09   8.551e-10    -8.920    -9.068    -0.148     -4.05
   H2O             5.551e+01   9.932e-01     1.744    -0.003     0.000     18.03
Amm           2.003e-01
   AmmH+           2.003e-01   1.371e-01    -0.698    -0.863    -0.164     17.84
   Amm             6.814e-06   7.135e-06    -5.167    -5.147     0.020     23.89
Cl            2.003e-01
   Cl-             2.003e-01   1.440e-01    -0.698    -0.842    -0.143     18.04
   HCl             2.286e-07   2.781e-07    -6.641    -6.556     0.085     19.56
H(0)          1.276e-16
   H2              6.380e-17   6.696e-17   -16.195   -16.174     0.021     14.15
O(0)          0.000e+00
   O2              0.000e+00   0.000e+00   -63.483   -63.463     0.020     29.51

------------------------------Saturation indices-------------------------------

  Phase               SI** log IAP   log K(288 K,   1 atm)

  Amm(g)           -7.16     -5.15    2.01  Amm
  H2(g)           -13.10    -16.17   -3.08  H2
  H2O(g)           -1.77     -0.00    1.77  H2O
  O2(g)           -60.65    -63.46   -2.81  O2

**For a gas, SI = log10(fugacity). Fugacity = pressure * phi / 1 atm.
  For ideal gases, phi = 1.

Reaction step 11.

Using solution 1.	
Using temperature 1.	
Using pressure 1.	
Using reaction 1.	

Reaction 1.	

	  3.000e-01 moles of the following reaction have been added:

	                 Relative
	Reactant            moles

	AmmHCl               1.00000

	                 Relative
	Element             moles
	Amm                  1.00000
	Cl                   1.00000
	H                    1.00000

-----------------------------Solution composition------------------------------

	Elements           Molality       Moles

	Amm               3.000e-01   3.000e-01
	Cl                3.000e-01   3.000e-01

----------------------------Description of solution----------------------------

                                       pH  =   5.214      Charge balance
                                       pe  =  13.404      Adjusted to redox equilibrium
      Specific Conductance (µS/cm,  15°C)  = 29837
                          Density (g/cm³)  =   1.00428
                               Volume (L)  =   1.01172
                        Viscosity (mPa s)  =   1.12929
                        Activity of water  =   0.990
                 Ionic strength (mol/kgw)  =   3.000e-01
                       Mass of water (kg)  =   1.000e+00
                 Total alkalinity (eq/kg)  =   6.843e-17
                         Temperature (°C)  =  15.00
                  Electrical balance (eq)  =   7.720e-14
 Percent error, 100*(Cat-|An|)/(Cat+|An|)  =   0.00
                               Iterations  =  13
                                  Total H  = 1.113124e+02
                                  Total O  = 5.550622e+01

----------------------------Distribution of species----------------------------

                                               Log       Log       Log    mole V
   Species          Molality    Activity  Molality  Activity     Gamma   cm³/mol

   H+              7.777e-06   6.104e-06    -5.109    -5.214    -0.105      0.00
   OH-             1.085e-09   7.356e-10    -8.964    -9.133    -0.169     -3.86
   H2O             5.551e+01   9.898e-01     1.744    -0.004     0.000     18.03
Amm           3.000e-01
   AmmH+           3.000e-01   1.938e-01    -0.523    -0.713    -0.190     17.93
   Amm             8.121e-06   8.702e-06    -5.090    -5.060     0.030     23.89
Cl            3.000e-01
   Cl-             3.000e-01   2.069e-01    -0.523    -0.684    -0.161     18.12
   HCl             3.449e-07   4.628e-07    -6.462    -6.335     0.128     19.56
H(0)          0.000e+00
   H2              0.000e+00   0.000e+00   -40.374   -40.343     0.031     14.15
O(0)          1.388e-15
   O2              6.938e-16   7.434e-16   -15.159   -15.129     0.030     29.51

------------------------------Saturation indices-------------------------------

  Phase               SI** log IAP   log K(288 K,   1 atm)

  Amm(g)           -7.07     -5.06    2.01  Amm
  H2(g)           -37.27    -40.34   -3.08  H2
  H2O(g)           -1.77     -0.00    1.77  H2O
  O2(g)           -12.32    -15.13   -2.81  O2

**For a gas, SI = log10(fugacity). Fugacity = pressure * phi / 1 atm.
  For ideal gases, phi = 1.

Reaction step 12.

Using solution 1.	
Using temperature 1.	
Using pressure 1.	
Using reaction 1.	

Reaction 1.	

	  5.000e-01 moles of the following reaction have been added:

	                 Relative
	Reactant            moles

	AmmHCl               1.00000

	                 Relative
	Element             moles
	Amm                  1.00000
	Cl                   1.00000
	H                    1.00000

-----------------------------Solution composition------------------------------

	Elements           Molality       Moles

	Amm               5.000e-01   5.000e-01
	Cl                5.000e-01   5.000e-01

----------------------------Description of solution----------------------------

                                       pH  =   5.138      Charge balance
                                       pe  =   1.082      Adjusted to redox equilibrium
      Specific Conductance (µS/cm,  15°C)  = 48711
                          Density (g/cm³)  =   1.00754
                               Volume (L)  =   1.01907
                        Viscosity (mPa s)  =   1.12330
                        Activity of water  =   0.983
                 Ionic strength (mol/kgw)  =   5.000e-01
                       Mass of water (kg)  =   1.000e+00
                 Total alkalinity (eq/kg)  =  -3.798e-17
                         Temperature (°C)  =  15.00
                  Electrical balance (eq)  =   2.576e-15
 Percent error, 100*(Cat-|An|)/(Cat+|An|)  =   0.00
                               Iterations  =  11
                                  Total H  = 1.115124e+02
                                  Total O  = 5.550622e+01

----------------------------Distribution of species----------------------------

                                               Log       Log       Log    mole V
   Species          Molality    Activity  Molality  Activity     Gamma   cm³/mol

   H+              9.479e-06   7.271e-06    -5.023    -5.138    -0.115      0.00
   OH-             9.633e-10   6.133e-10    -9.016    -9.212    -0.196     -3.50
   H2O             5.551e+01   9.830e-01     1.744    -0.007     0.000     18.03
Amm           5.000e-01
   AmmH+           5.000e-01   2.979e-01    -0.301    -0.526    -0.225     18.07
   Amm             1.001e-05   1.123e-05    -4.999    -4.949     0.050     23.89
Cl            5.000e-01
   Cl-             5.000e-01   3.270e-01    -0.301    -0.485    -0.184     18.26
   HCl             5.339e-07   8.715e-07    -6.273    -6.060     0.213     19.56
H(0)          5.038e-16
   H2              2.519e-16   2.843e-16   -15.599   -15.546     0.052     14.15
O(0)          0.000e+00
   O2              0.000e+00   0.000e+00   -64.777   -64.727     0.050     29.51

------------------------------Saturation indices-------------------------------

  Phase               SI** log IAP   log K(288 K,   1 atm)

  Amm(g)           -6.96     -4.95    2.01  Amm
  H2(g)           -12.47    -15.55   -3.08  H2
  H2O(g)           -1.78     -0.01    1.77  H2O
  O2(g)           -61.92    -64.73   -2.81  O2

**For a gas, SI = log10(fugacity). Fugacity = pressure * phi / 1 atm.
  For ideal gases, phi = 1.

Reaction step 13.

Using solution 1.	
Using temperature 1.	
Using pressure 1.	
Using reaction 1.	

Reaction 1.	

	  5.007e-01 moles of the following reaction have been added:

	                 Relative
	Reactant            moles

	AmmHCl               1.00000

	                 Relative
	Element             moles
	Amm                  1.00000
	Cl                   1.00000
	H                    1.00000

-----------------------------Solution composition------------------------------

	Elements           Molality       Moles

	Amm               5.006e-01   5.007e-01
	Cl                5.006e-01   5.007e-01

----------------------------Description of solution----------------------------

                                       pH  =   5.138      Charge balance
                                       pe  =  13.584      Adjusted to redox equilibrium
      Specific Conductance (µS/cm,  15°C)  = 48772
                          Density (g/cm³)  =   1.00755
                               Volume (L)  =   1.01909
                        Viscosity (mPa s)  =   1.12328
                        Activity of water  =   0.983
                 Ionic strength (mol/kgw)  =   5.006e-01
                       Mass of water (kg)  =   1.000e+00
                 Total alkalinity (eq/kg)  =   1.999e-14
                         Temperature (°C)  =  15.00
                  Electrical balance (eq)  =   9.455e-12
 Percent error, 100*(Cat-|An|)/(Cat+|An|)  =   0.00
                               Iterations  =  13
                                  Total H  = 1.115131e+02
                                  Total O  = 5.550622e+01

----------------------------Distribution of species----------------------------

                                               Log       Log       Log    mole V
   Species          Molality    Activity  Molality  Activity     Gamma   cm³/mol

   H+              9.483e-06   7.274e-06    -5.023    -5.138    -0.115      0.00
   OH-             9.631e-10   6.130e-10    -9.016    -9.213    -0.196     -3.50
   H2O             5.551e+01   9.830e-01     1.744    -0.007     0.000     18.03
Amm           5.006e-01
   AmmH+           5.006e-01   2.983e-01    -0.300    -0.525    -0.225     18.07
   Amm             1.002e-05   1.124e-05    -4.999    -4.949     0.050     23.89
Cl            5.006e-01
   Cl-             5.006e-01   3.274e-01    -0.300    -0.485    -0.184     18.26
   HCl             5.344e-07   8.729e-07    -6.272    -6.059     0.213     19.56
H(0)          0.000e+00
   H2              0.000e+00   0.000e+00   -40.603   -40.550     0.053     14.15
O(0)          3.401e-15
   O2              1.701e-15   1.908e-15   -14.769   -14.719     0.050     29.51

------------------------------Saturation indices-------------------------------

  Phase               SI** log IAP   log K(288 K,   1 atm)

  Amm(g)           -6.96     -4.95    2.01  Amm
  H2(g)           -37.47    -40.55   -3.08  H2
  H2O(g)           -1.78     -0.01    1.77  H2O
  O2(g)           -11.91    -14.72   -2.81  O2

**For a gas, SI = log10(fugacity). Fugacity = pressure * phi / 1 atm.
  For ideal gases, phi = 1.

Reaction step 14.

Using solution 1.	
Using temperature 1.	
Using pressure 1.	
Using reaction 1.	

Reaction 1.	

	  1.000e+00 moles of the following reaction have been added:

	                 Relative
	Reactant            moles

	AmmHCl               1.00000

	                 Relative
	Element             moles
	Amm                  1.00000
	Cl                   1.00000
	H                    1.00000

-----------------------------Solution composition------------------------------

	Elements           Molality       Moles

	Amm               1.000e+00   1.000e+00
	Cl                1.000e+00   1.000e+00

----------------------------Description of solution----------------------------

                                       pH  =   5.046      Charge balance
                                       pe  =  13.684      Adjusted to redox equilibrium
      Specific Conductance (µS/cm,  15°C)  = 94322
                          Density (g/cm³)  =   1.01519
                               Volume (L)  =   1.03773
                        Viscosity (mPa s)  =   1.10971
                        Activity of water  =   0.966
                 Ionic strength (mol/kgw)  =   1.000e+00
                       Mass of water (kg)  =   1.000e+00
                 Total alkalinity (eq/kg)  =   5.511e-12
                         Temperature (°C)  =  15.00
                  Electrical balance (eq)  =   4.463e-10
 Percent error, 100*(Cat-|An|)/(Cat+|An|)  =   0.00
                               Iterations  =  50
                                  Total H  = 1.120124e+02
                                  Total O  = 5.550622e+01

----------------------------Distribution of species----------------------------

                                               Log       Log       Log    mole V
   Species          Molality    Activity  Molality  Activity     Gamma   cm³/mol

   H+              1.206e-05   8.996e-06    -4.919    -5.046    -0.127      0.00
   OH-             8.348e-10   4.871e-10    -9.078    -9.312    -0.234     -2.70
   H2O             5.551e+01   9.660e-01     1.744    -0.015     0.000     18.03
Amm           1.000e+00
   AmmH+           1.000e+00   5.296e-01    -0.000    -0.276    -0.276     18.31
   Amm             1.282e-05   1.614e-05    -4.892    -4.792     0.100     23.89
Cl            1.000e+00
   Cl-             1.000e+00   6.132e-01    -0.000    -0.212    -0.212     18.51
   HCl             7.589e-07   2.022e-06    -6.120    -5.694     0.426     19.56
H(0)          0.000e+00
   H2              0.000e+00   0.000e+00   -40.670   -40.565     0.105     14.15
O(0)          3.139e-15
   O2              1.569e-15   1.976e-15   -14.804   -14.704     0.100     29.51

------------------------------Saturation indices-------------------------------

  Phase               SI** log IAP   log K(288 K,   1 atm)

  Amm(g)           -6.81     -4.79    2.01  Amm
  H2(g)           -37.49    -40.57   -3.08  H2
  H2O(g)           -1.78     -0.02    1.77  H2O
  O2(g)           -11.89    -14.70   -2.81  O2

[...]
Amm           7.270e+00
   AmmH+           7.270e+00   2.356e+00     0.862     0.372    -0.489     19.35
   Amm             1.576e-04   8.403e-04    -3.803    -3.076     0.727     23.47
Cl            7.270e+00
   Cl-             7.270e+00   4.104e+00     0.862     0.613    -0.248     20.14
   HCl             7.544e-08   9.370e-05    -7.122    -4.028     3.094     23.04
H(0)          6.929e-15
   H2              3.464e-15   2.009e-14   -14.460   -13.697     0.763     18.32
O(0)          0.000e+00
   O2              0.000e+00   0.000e+00   -46.963   -46.236     0.727     33.90

------------------------------Saturation indices-------------------------------

  Phase               SI** log IAP   log K(373 K,   1 atm)

  Amm(g)           -3.68     -3.08    0.60  Amm
  H2(g)           -10.61    -13.70   -3.09  H2
  H2O(g)           -0.13     -0.12    0.00  H2O
  O2(g)           -43.12    -46.24   -3.11  O2

**For a gas, SI = log10(fugacity). Fugacity = pressure * phi / 1 atm.
  For ideal gases, phi = 1.

Reaction step 10.

Using solution 1.	
Using temperature 1.	
Using pressure 1.	
Using reaction 1.	

Reaction 1.	

	  8.012e+00 moles of the following reaction have been added:

	                 Relative
	Reactant            moles

	AmmHCl               1.00000

	                 Relative
	Element             moles
	Amm                  1.00000
	Cl                   1.00000
	H                    1.00000

-----------------------------Solution composition------------------------------

	Elements           Molality       Moles

	Amm               8.012e+00   8.012e+00
	Cl                8.012e+00   8.012e+00

----------------------------Description of solution----------------------------

                                       pH  =   3.997      Charge balance
                                       pe  =   1.217      Adjusted to redox equilibrium
      Specific Conductance (µS/cm, 100°C)  = 1336375
                          Density (g/cm³)  =   1.04923
                               Volume (L)  =   1.36155
                        Viscosity (mPa s)  =   0.40779
                        Activity of water  =   0.728
                 Ionic strength (mol/kgw)  =   8.012e+00
                       Mass of water (kg)  =   1.000e+00
                 Total alkalinity (eq/kg)  =   3.876e-15
                         Temperature (°C)  = 100.00
                  Electrical balance (eq)  =   4.317e-12
 Percent error, 100*(Cat-|An|)/(Cat+|An|)  =   0.00
                               Iterations  =  15
                                  Total H  = 1.190244e+02
                                  Total O  = 5.550622e+01

----------------------------Distribution of species----------------------------

                                               Log       Log       Log    mole V
   Species          Molality    Activity  Molality  Activity     Gamma   cm³/mol

   H+              1.507e-04   1.008e-04    -3.822    -3.997    -0.175      0.00
   OH-             1.016e-08   4.170e-09    -7.993    -8.380    -0.387      8.47
   H2O             5.551e+01   7.276e-01     1.744    -0.138     0.000     18.80
Amm           8.012e+00
   AmmH+           8.012e+00   2.555e+00     0.904     0.407    -0.496     19.43
   Amm             1.508e-04   9.539e-04    -3.822    -3.021     0.801     23.47
Cl            8.012e+00
   Cl-             8.012e+00   4.612e+00     0.904     0.664    -0.240     20.27
   HCl             3.914e-08   1.006e-04    -7.407    -3.998     3.410     23.04
H(0)          4.201e-15
   H2              2.101e-15   1.457e-14   -14.678   -13.836     0.841     18.32
O(0)          0.000e+00
   O2              0.000e+00   0.000e+00   -46.788   -45.986     0.801     33.90

------------------------------Saturation indices-------------------------------

  Phase               SI** log IAP   log K(373 K,   1 atm)

  Amm(g)           -3.62     -3.02    0.60  Amm
  H2(g)           -10.75    -13.84   -3.09  H2
  H2O(g)           -0.14     -0.14    0.00  H2O
  O2(g)           -42.87    -45.99   -3.11  O2

**For a gas, SI = log10(fugacity). Fugacity = pressure * phi / 1 atm.
  For ideal gases, phi = 1.

Reaction step 11.

Using solution 1.	
Using temperature 1.	
Using pressure 1.	
Using reaction 1.	

Reaction 1.	

	  8.797e+00 moles of the following reaction have been added:

	                 Relative
	Reactant            moles

	AmmHCl               1.00000

	                 Relative
	Element             moles
	Amm                  1.00000
	Cl                   1.00000
	H                    1.00000

-----------------------------Solution composition------------------------------

	Elements           Molality       Moles

	Amm               8.797e+00   8.797e+00
	Cl                8.797e+00   8.797e+00

----------------------------Description of solution----------------------------

                                       pH  =   4.019      Charge balance
                                       pe  =   1.225      Adjusted to redox equilibrium
      Specific Conductance (µS/cm, 100°C)  = 1386703
                          Density (g/cm³)  =   1.05452
                               Volume (L)  =   1.39456
                        Viscosity (mPa s)  =   0.42009
                        Activity of water  =   0.701
                 Ionic strength (mol/kgw)  =   8.797e+00
                       Mass of water (kg)  =   1.000e+00
                 Total alkalinity (eq/kg)  =   3.623e-16
                         Temperature (°C)  = 100.00
                  Electrical balance (eq)  =   2.493e-13
 Percent error, 100*(Cat-|An|)/(Cat+|An|)  =   0.00
                               Iterations  =  38
                                  Total H  = 1.198098e+02
                                  Total O  = 5.550622e+01

----------------------------Distribution of species----------------------------

                                               Log       Log       Log    mole V
   Species          Molality    Activity  Molality  Activity     Gamma   cm³/mol

   H+              1.433e-04   9.566e-05    -3.844    -4.019    -0.176      0.00
   OH-             1.041e-08   4.233e-09    -7.982    -8.373    -0.391      9.60
   H2O             5.551e+01   7.009e-01     1.744    -0.154     0.000     18.80
Amm           8.797e+00
   AmmH+           8.797e+00   2.762e+00     0.944     0.441    -0.503     19.52
   Amm             1.433e-04   1.087e-03    -3.844    -2.964     0.880     23.47
Cl            8.797e+00
   Cl-             8.797e+00   5.176e+00     0.944     0.714    -0.230     20.39
   HCl             1.931e-08   1.071e-04    -7.714    -3.970     3.744     23.04
H(0)          3.024e-15
   H2              1.512e-15   1.268e-14   -14.820   -13.897     0.924     18.32
O(0)          0.000e+00
   O2              0.000e+00   0.000e+00   -46.778   -45.898     0.880     33.90

------------------------------Saturation indices-------------------------------

  Phase               SI** log IAP   log K(373 K,   1 atm)

  Amm(g)           -3.57     -2.96    0.60  Amm
  H2(g)           -10.81    -13.90   -3.09  H2
  H2O(g)           -0.16     -0.15    0.00  H2O
  O2(g)           -42.78    -45.90   -3.11  O2

**For a gas, SI = log10(fugacity). Fugacity = pressure * phi / 1 atm.
  For ideal gases, phi = 1.

Reaction step 12.

Using solution 1.	
Using temperature 1.	
Using pressure 1.	
Using reaction 1.	

Reaction 1.	

	  9.630e+00 moles of the following reaction have been added:

	                 Relative
	Reactant            moles

	AmmHCl               1.00000

	                 Relative
	Element             moles
	Amm                  1.00000
	Cl                   1.00000
	H                    1.00000

-----------------------------Solution composition------------------------------

	Elements           Molality       Moles

	Amm               9.630e+00   9.630e+00
	Cl                9.630e+00   9.630e+00

----------------------------Description of solution----------------------------

                                       pH  =   4.045      Charge balance
                                       pe  =   9.190      Adjusted to redox equilibrium
      Specific Conductance (µS/cm, 100°C)  = 1431433
                          Density (g/cm³)  =   1.05972
                               Volume (L)  =   1.42976
                        Viscosity (mPa s)  =   0.43318
                        Activity of water  =   0.673
                 Ionic strength (mol/kgw)  =   9.630e+00
                       Mass of water (kg)  =   1.000e+00
                 Total alkalinity (eq/kg)  =   4.410e-14
                         Temperature (°C)  = 100.00
                  Electrical balance (eq)  =   3.414e-11
 Percent error, 100*(Cat-|An|)/(Cat+|An|)  =   0.00
                               Iterations  =  12
                                  Total H  = 1.206429e+02
                                  Total O  = 5.550622e+01

----------------------------Distribution of species----------------------------

                                               Log       Log       Log    mole V
   Species          Molality    Activity  Molality  Activity     Gamma   cm³/mol

   H+              1.354e-04   9.019e-05    -3.868    -4.045    -0.176      0.00
   OH-             1.069e-08   4.308e-09    -7.971    -8.366    -0.395     10.79
   H2O             5.551e+01   6.726e-01     1.744    -0.172     0.000     18.80
Amm           9.630e+00
   AmmH+           9.630e+00   2.980e+00     0.984     0.474    -0.509     19.61
   Amm             1.354e-04   1.243e-03    -3.868    -2.905     0.963     23.47
Cl            9.630e+00
   Cl-             9.630e+00   5.805e+00     0.984     0.764    -0.220     20.51
   HCl             9.025e-09   1.133e-04    -8.045    -3.946     4.099     23.04
H(0)          2.582e-31
   H2              1.291e-31   1.324e-30   -30.889   -29.878     1.011     18.32
O(0)          2.324e-15
   O2              1.162e-15   1.067e-14   -14.935   -13.972     0.963     33.90

------------------------------Saturation indices-------------------------------

  Phase               SI** log IAP   log K(373 K,   1 atm)

  Amm(g)           -3.51     -2.91    0.60  Amm
  H2(g)           -26.79    -29.88   -3.09  H2
  H2O(g)           -0.18     -0.17    0.00  H2O
  O2(g)           -10.86    -13.97   -3.11  O2

**For a gas, SI = log10(fugacity). Fugacity = pressure * phi / 1 atm.
  For ideal gases, phi = 1.

Reaction step 13.

Using solution 1.	
Using temperature 1.	
Using pressure 1.	
Using reaction 1.	

Reaction 1.	

	  1.052e+01 moles of the following reaction have been added:

	                 Relative
	Reactant            moles

	AmmHCl               1.00000

	                 Relative
	Element             moles
	Amm                  1.00000
	Cl                   1.00000
	H                    1.00000

-----------------------------Solution composition------------------------------

	Elements           Molality       Moles

	Amm               1.052e+01   1.052e+01
	Cl                1.052e+01   1.052e+01

----------------------------Description of solution----------------------------

                                       pH  =   4.073      Charge balance
                                       pe  =   9.262      Adjusted to redox equilibrium
      Specific Conductance (µS/cm, 100°C)  = 1470485
                          Density (g/cm³)  =   1.06485
                               Volume (L)  =   1.46735
                        Viscosity (mPa s)  =   0.44714
                        Activity of water  =   0.642
                 Ionic strength (mol/kgw)  =   1.052e+01
                       Mass of water (kg)  =   1.000e+00
                 Total alkalinity (eq/kg)  =   1.739e-13
                         Temperature (°C)  = 100.00
                  Electrical balance (eq)  =   9.378e-11
 Percent error, 100*(Cat-|An|)/(Cat+|An|)  =   0.00
                               Iterations  =  12
                                  Total H  = 1.215281e+02
                                  Total O  = 5.550622e+01

----------------------------Distribution of species----------------------------

                                               Log       Log       Log    mole V
   Species          Molality    Activity  Molality  Activity     Gamma   cm³/mol

   H+              1.270e-04   8.445e-05    -3.896    -4.073    -0.177      0.00
   OH-             1.100e-08   4.395e-09    -7.959    -8.357    -0.398     12.03
   H2O             5.551e+01   6.425e-01     1.744    -0.192     0.000     18.80
Amm           1.052e+01
   AmmH+           1.052e+01   3.208e+00     1.022     0.506    -0.516     19.69
   Amm             1.270e-04   1.430e-03    -3.896    -2.845     1.052     23.47
Cl            1.052e+01
   Cl-             1.052e+01   6.511e+00     1.022     0.814    -0.208     20.62
   HCl             3.981e-09   1.190e-04    -8.400    -3.925     4.475     23.04
H(0)          1.308e-31
   H2              6.539e-32   8.311e-31   -31.184   -30.080     1.104     18.32
O(0)          4.393e-15
   O2              2.197e-15   2.474e-14   -14.658   -13.607     1.052     33.90

------------------------------Saturation indices-------------------------------

  Phase               SI** log IAP   log K(373 K,   1 atm)

  Amm(g)           -3.45     -2.84    0.60  Amm
  H2(g)           -26.99    -30.08   -3.09  H2
  H2O(g)           -0.20     -0.19    0.00  H2O
  O2(g)           -10.49    -13.61   -3.11  O2

**For a gas, SI = log10(fugacity). Fugacity = pressure * phi / 1 atm.
  For ideal gases, phi = 1.

Reaction step 14.

Using solution 1.	
Using temperature 1.	
Using pressure 1.	
Using reaction 1.	

Reaction 1.	

	  1.146e+01 moles of the following reaction have been added:

	                 Relative
	Reactant            moles

	AmmHCl               1.00000

	                 Relative
	Element             moles
	Amm                  1.00000
	Cl                   1.00000
	H                    1.00000

-----------------------------Solution composition------------------------------

	Elements           Molality       Moles

	Amm               1.146e+01   1.146e+01
	Cl                1.146e+01   1.146e+01

----------------------------Description of solution----------------------------

                                       pH  =   4.105      Charge balance
                                       pe  =   9.051      Adjusted to redox equilibrium
      Specific Conductance (µS/cm, 100°C)  = 1503786
                          Density (g/cm³)  =   1.06990
                               Volume (L)  =   1.50754
                        Viscosity (mPa s)  =   0.46205
                        Activity of water  =   0.610
                 Ionic strength (mol/kgw)  =   1.146e+01
                       Mass of water (kg)  =   1.000e+00
                 Total alkalinity (eq/kg)  =   2.136e-12
                         Temperature (°C)  = 100.00
                  Electrical balance (eq)  =   5.194e-10
 Percent error, 100*(Cat-|An|)/(Cat+|An|)  =   0.00
                               Iterations  =  12
                                  Total H  = 1.224703e+02
                                  Total O  = 5.550622e+01

----------------------------Distribution of species----------------------------

                                               Log       Log       Log    mole V
   Species          Molality    Activity  Molality  Activity     Gamma   cm³/mol

   H+              1.182e-04   7.851e-05    -3.927    -4.105    -0.178      0.00
   OH-             1.133e-08   4.492e-09    -7.946    -8.348    -0.402     13.34
   H2O             5.551e+01   6.104e-01     1.744    -0.214     0.000     18.80
Amm           1.146e+01
   AmmH+           1.146e+01   3.450e+00     1.059     0.538    -0.521     19.78
   Amm             1.182e-04   1.654e-03    -3.927    -2.782     1.146     23.47
Cl            1.146e+01
   Cl-             1.146e+01   7.306e+00     1.059     0.864    -0.195     20.72
   HCl             1.649e-09   1.241e-04    -8.783    -3.906     4.876     23.04
H(0)          2.383e-31
   H2              1.192e-31   1.902e-30   -30.924   -29.721     1.203     18.32
O(0)          6.096e-16
   O2              3.048e-16   4.264e-15   -15.516   -14.370     1.146     33.90

------------------------------Saturation indices-------------------------------

  Phase               SI** log IAP   log K(373 K,   1 atm)

  Amm(g)           -3.38     -2.78    0.60  Amm
  H2(g)           -26.63    -29.72   -3.09  H2
  H2O(g)           -0.22     -0.21    0.00  H2O
  O2(g)           -11.26    -14.37   -3.11  O2

**For a gas, SI = log10(fugacity). Fugacity = pressure * phi / 1 atm.
  For ideal gases, phi = 1.

Reaction step 15.

Using solution 1.	
Using temperature 1.	
Using pressure 1.	
Using reaction 1.	

Reaction 1.	

	  1.246e+01 moles of the following reaction have been added:

	                 Relative
	Reactant            moles

	AmmHCl               1.00000

	                 Relative
	Element             moles
	Amm                  1.00000
	Cl                   1.00000
	H                    1.00000

-----------------------------Solution composition------------------------------

	Elements           Molality       Moles

	Amm               1.246e+01   1.246e+01
	Cl                1.246e+01   1.246e+01

----------------------------Description of solution----------------------------

                                       pH  =   4.140      Charge balance
                                       pe  =   0.760      Adjusted to redox equilibrium
      Specific Conductance (µS/cm, 100°C)  = 1531279
                          Density (g/cm³)  =   1.07486
                               Volume (L)  =   1.55059
                        Viscosity (mPa s)  =   0.47803
                        Activity of water  =   0.576
                 Ionic strength (mol/kgw)  =   1.246e+01
                       Mass of water (kg)  =   1.000e+00
                 Total alkalinity (eq/kg)  =   5.838e-10
                         Temperature (°C)  = 100.00
                  Electrical balance (eq)  =   2.155e-08
 Percent error, 100*(Cat-|An|)/(Cat+|An|)  =   0.00
                               Iterations  =  16
                                  Total H  = 1.234754e+02
                                  Total O  = 5.550622e+01

----------------------------Distribution of species----------------------------

                                               Log       Log       Log    mole V
   Species          Molality    Activity  Molality  Activity     Gamma   cm³/mol

   H+              1.092e-04   7.241e-05    -3.962    -4.140    -0.178      0.00
   OH-             1.169e-08   4.597e-09    -7.932    -8.338    -0.405     14.73
   H2O             5.551e+01   5.763e-01     1.744    -0.239     0.000     18.80
Amm           1.246e+01
   AmmH+           1.246e+01   3.704e+00     1.096     0.569    -0.527     19.87
   Amm             1.092e-04   1.925e-03    -3.962    -2.716     1.246     23.47
Cl            1.246e+01
   Cl-             1.246e+01   8.206e+00     1.096     0.914    -0.181     20.82
   HCl             6.381e-10   1.286e-04    -9.195    -3.891     5.304     23.04
H(0)          6.061e-15
   H2              3.030e-15   6.167e-14   -14.519   -13.210     1.309     18.32
O(0)          0.000e+00
   O2              0.000e+00   0.000e+00   -48.688   -47.442     1.246     33.90

------------------------------Saturation indices-------------------------------

  Phase               SI** log IAP   log K(373 K,   1 atm)

  Amm(g)           -3.32     -2.72    0.60  Amm
  H2(g)           -10.12    -13.21   -3.09  H2
  H2O(g)           -0.24     -0.24    0.00  H2O
  O2(g)           -44.33    -47.44   -3.11  O2

**For a gas, SI = log10(fugacity). Fugacity = pressure * phi / 1 atm.
  For ideal gases, phi = 1.

------------------
End of simulation.
------------------

-------------------------------------
Reading input data for simulation 23.
-------------------------------------

