WARNING: Database file from DATABASE keyword is used; command line argument ignored.
   Input file: Vm_Na2CO3_sol
  Output file: Vm_Na2CO3_sol.out
Database file: ../database/pitzer.dat

------------------
Reading data base.
------------------

	SOLUTION_MASTER_SPECIES
	SOLUTION_SPECIES
	PHASES
	PITZER
	GAS_BINARY_PARAMETERS
	EXCHANGE_MASTER_SPECIES
	EXCHANGE_SPECIES
	SURFACE_MASTER_SPECIES
	SURFACE_SPECIES
	MEAN_GAMMAS
	END
------------------------------------
Reading input data for simulation 1.
------------------------------------

	DATABASE ../database/pitzer.dat
	SELECTED_OUTPUT 101
	    file                 Vm_Na2CO3_sol_101.sel
	USER_PUNCH 101
	    headings Mu SC
	    start
	10 PUNCH STR_F$(MU, 20, 12)
	20 PUNCH STR_F$(SC, 20, 10)
	    end
	SOLUTION 1
	 pH 7 charge
	END
-------------------------------------------
Beginning of initial solution calculations.
-------------------------------------------

Initial solution 1.	

-----------------------------Solution composition------------------------------

	Elements           Molality       Moles

	Pure water     

----------------------------Description of solution----------------------------

                                       pH  =   6.997      Charge balance
                                       pe  =   4.000    
      Specific Conductance (µS/cm,  25°C)  = 0
                          Density (g/cm³)  =   0.99704
                               Volume (L)  =   1.00297
                        Viscosity (mPa s)  =   0.89002
                        Activity of water  =   1.000
                 Ionic strength (mol/kgw)  =   1.006e-07
                       Mass of water (kg)  =   1.000e+00
                 Total alkalinity (eq/kg)  =   0.000e+00
                         Temperature (°C)  =  25.00
                  Electrical balance (eq)  =   0.000e+00
 Percent error, 100*(Cat-|An|)/(Cat+|An|)  =   0.00
                               Iterations  =   4
                         Gamma iterations  =   2
                      Osmotic coefficient  =   0.99988
                         Density of water  =   0.99704
                                  Total H  = 1.110124e+02
                                  Total O  = 5.550622e+01

----------------------------Distribution of species----------------------------

                                                    MacInnes  MacInnes
                                MacInnes       Log       Log       Log    mole V
   Species          Molality    Activity  Molality  Activity     Gamma   cm³/mol

   OH-             1.006e-07   1.006e-07    -6.997    -6.997    -0.000     -4.14
   H+              1.006e-07   1.006e-07    -6.997    -6.997    -0.000      0.00
   H2O             5.551e+01   1.000e+00     1.744    -0.000     0.000     18.07

------------------------------Saturation indices-------------------------------

  Phase               SI** log IAP   log K(298 K,   1 atm)

  H2O(g)           -1.50     -0.00    1.50  H2O

**For a gas, SI = log10(fugacity). Fugacity = pressure * phi / 1 atm.
  For ideal gases, phi = 1.

------------------
End of simulation.
------------------

------------------------------------
Reading input data for simulation 2.
------------------------------------

	USE solution 1
	REACTION_TEMPERATURE
	 1.000000
	REACTION_PRESSURE
	 1.000000
	REACTION
	 Na2CO3 1
	0 0.009740 0.019380 0.022210 0.044250 0.047980 0.067290 0.067370 0.090600 0.127630 0.131430 0.131970 0.181060 0.247730 0.376970 0.492290 0.628690
	USER_GRAPH
	 -headings 1.oC
	-axis_titles "Na2CO3 / (mol/kg H2O)" "Na2CO3 molar volume / (cm3/mol)"
	10 data 0, -15.267448, -14.174989, -14.300562, -13.374073, -13.401123, -12.596959, -12.589581, -11.852200, -11.048816, -10.764829, -10.934667, -9.933089, -8.663380, -6.695739, -5.179877, -3.574271,
	20 dim d(17)
	30 read d(1), d(2), d(3), d(4), d(5), d(6), d(7), d(8), d(9), d(10), d(11), d(12), d(13), d(14), d(15), d(16), d(17),
	40 if step_no = 1 then put(rho, 10)
	50 if step_no > 1 then Vmol = (1e3 + tot("C") * 105.9907) / (tot("C") * rho) - 1e3 / (tot("C") * get(10))
	60 if step_no = 1 then dif = 0 else dif = Vmol - d(step_no)
	62 if step_no = 1 then goto 90
	70 plot_xy tot("C"), d(step_no), line_w = 0, color = Yellow
	80 plot_xy tot("C"), Vmol, symbol = None, color = Yellow
	90 end
	END
-----------------------------------------
Beginning of batch-reaction calculations.
-----------------------------------------

Reaction step 1.

Using solution 1.	
Using temperature 1.	
Using pressure 1.	
Using reaction 1.	

Reaction 1.	

	  0.000e+00 moles of the following reaction have been added:

	                 Relative
	Reactant            moles

	Na2CO3               1.00000

	                 Relative
	Element             moles
	C                    1.00000
	Na                   2.00000
	O                    3.00000

-----------------------------Solution composition------------------------------

	Elements           Molality       Moles

	Pure water     

----------------------------Description of solution----------------------------

                                       pH  =   7.448      Charge balance
                                       pe  =   4.000      Adjusted to redox equilibrium
      Specific Conductance (µS/cm,   1°C)  = 0
                          Density (g/cm³)  =   0.99990
                               Volume (L)  =   1.00010
                        Viscosity (mPa s)  =   1.73103
                        Activity of water  =   1.000
                 Ionic strength (mol/kgw)  =   3.566e-08
                       Mass of water (kg)  =   1.000e+00
                 Total alkalinity (eq/kg)  =  -1.397e-19
                         Temperature (°C)  =   1.00
                  Electrical balance (eq)  =   1.397e-19
 Percent error, 100*(Cat-|An|)/(Cat+|An|)  =   0.00
                               Iterations  =   5
                         Gamma iterations  =   2
                      Osmotic coefficient  =   0.99993
                         Density of water  =   0.99990
                                  Total H  = 1.110124e+02
                                  Total O  = 5.550622e+01

----------------------------Distribution of species----------------------------

                                                    MacInnes  MacInnes
                                MacInnes       Log       Log       Log    mole V
   Species          Molality    Activity  Molality  Activity     Gamma   cm³/mol

   H+              3.566e-08   3.565e-08    -7.448    -7.448    -0.000      0.00
   OH-             3.566e-08   3.565e-08    -7.448    -7.448    -0.000     -6.05
   H2O             5.551e+01   1.000e+00     1.744    -0.000     0.000     18.02

------------------------------Saturation indices-------------------------------

  Phase               SI** log IAP   log K(274 K,   1 atm)

  H2O(g)           -2.18     -0.00    2.18  H2O

**For a gas, SI = log10(fugacity). Fugacity = pressure * phi / 1 atm.
  For ideal gases, phi = 1.

Reaction step 2.

Using solution 1.	
Using temperature 1.	
Using pressure 1.	
Using reaction 1.	

Reaction 1.	

	  9.740e-03 moles of the following reaction have been added:

	                 Relative
	Reactant            moles

	Na2CO3               1.00000

	                 Relative
	Element             moles
	C                    1.00000
	Na                   2.00000
	O                    3.00000

-----------------------------Solution composition------------------------------

	Elements           Molality       Moles

	C                 9.740e-03   9.740e-03
	Na                1.948e-02   1.948e-02

----------------------------Description of solution----------------------------

                                       pH  =  11.593      Charge balance
                                       pe  =   4.000      Adjusted to redox equilibrium
      Specific Conductance (µS/cm,   1°C)  = 1041
                          Density (g/cm³)  =   1.00107
                               Volume (L)  =   0.99996
                        Viscosity (mPa s)  =   1.74122
                        Activity of water  =   1.000
                 Ionic strength (mol/kgw)  =   2.864e-02
                       Mass of water (kg)  =   1.000e+00
                 Total alkalinity (eq/kg)  =   1.948e-02
                       Total CO2 (mol/kg)  =   9.740e-03
                         Temperature (°C)  =   1.00
                  Electrical balance (eq)  =  -9.652e-15
 Percent error, 100*(Cat-|An|)/(Cat+|An|)  =  -0.00
                               Iterations  =  15
                         Gamma iterations  =   3
                      Osmotic coefficient  =   0.91000
                         Density of water  =   0.99990
                                  Total H  = 1.110124e+02
                                  Total O  = 5.553544e+01

----------------------------Distribution of species----------------------------

                                                    MacInnes  MacInnes
                                MacInnes       Log       Log       Log    mole V
   Species          Molality    Activity  Molality  Activity     Gamma   cm³/mol

   OH-             5.825e-04   4.978e-04    -3.235    -3.303    -0.068     -5.89
   H+              3.062e-12   2.552e-12   -11.514   -11.593    -0.079      0.00
   H2O             5.551e+01   9.995e-01     1.744    -0.000     0.000     18.02
C(4)          9.740e-03
   CO3-2           9.158e-03   4.951e-03    -2.038    -2.305    -0.267     -8.23
   HCO3-           5.825e-04   5.310e-04    -3.235    -3.275    -0.040     21.29
   CO2             4.850e-09   4.866e-09    -8.314    -8.313     0.001     33.55
Na            1.948e-02
   Na+             1.948e-02   1.658e-02    -1.710    -1.780    -0.070     -3.19

------------------------------Saturation indices-------------------------------

  Phase               SI** log IAP   log K(274 K,   1 atm)

  CO2(g)           -7.19     -8.31   -1.12  CO2
  H2O(g)           -2.18     -0.00    2.18  H2O
  Nahcolite        -4.94    -15.68  -10.74  NaHCO3
  Natron           -5.04     -5.87   -0.82  Na2CO3:10H2O
  Trona           -10.16    -21.55  -11.38  Na3H(CO3)2:2H2O

**For a gas, SI = log10(fugacity). Fugacity = pressure * phi / 1 atm.
  For ideal gases, phi = 1.

Reaction step 3.

Using solution 1.	
Using temperature 1.	
Using pressure 1.	
Using reaction 1.	

Reaction 1.	

	  1.938e-02 moles of the following reaction have been added:

	                 Relative
	Reactant            moles

	Na2CO3               1.00000

	                 Relative
	Element             moles
	C                    1.00000
	Na                   2.00000
	O                    3.00000

-----------------------------Solution composition------------------------------

	Elements           Molality       Moles

	C                 1.938e-02   1.938e-02
	Na                3.876e-02   3.876e-02

----------------------------Description of solution----------------------------

                                       pH  =  11.703      Charge balance
                                       pe  =   4.000      Adjusted to redox equilibrium
      Specific Conductance (µS/cm,   1°C)  = 1938
                          Density (g/cm³)  =   1.00222
                               Volume (L)  =   0.99983
                        Viscosity (mPa s)  =   1.75003
                        Activity of water  =   0.999
                 Ionic strength (mol/kgw)  =   5.735e-02
                       Mass of water (kg)  =   1.000e+00
                 Total alkalinity (eq/kg)  =   3.876e-02
                       Total CO2 (mol/kg)  =   1.938e-02
                         Temperature (°C)  =   1.00
                  Electrical balance (eq)  =  -3.831e-14
 Percent error, 100*(Cat-|An|)/(Cat+|An|)  =  -0.00
                               Iterations  =  16
                         Gamma iterations  =   3
                      Osmotic coefficient  =   0.88396
                         Density of water  =   0.99990
                                  Total H  = 1.110124e+02
                                  Total O  = 5.556436e+01

----------------------------Distribution of species----------------------------

                                                    MacInnes  MacInnes
                                MacInnes       Log       Log       Log    mole V
   Species          Molality    Activity  Molality  Activity     Gamma   cm³/mol

   OH-             7.869e-04   6.404e-04    -3.104    -3.194    -0.089     -5.80
   H+              2.544e-12   1.983e-12   -11.594   -11.703    -0.108      0.00
   H2O             5.551e+01   9.991e-01     1.744    -0.000     0.000     18.02
C(4)          1.938e-02
   CO3-2           1.859e-02   8.275e-03    -1.731    -2.082    -0.352     -7.87
   HCO3-           7.869e-04   6.897e-04    -3.104    -3.161    -0.057     21.68
   CO2             4.881e-09   4.913e-09    -8.312    -8.309     0.003     33.55
Na            3.876e-02
   Na+             3.876e-02   3.132e-02    -1.412    -1.504    -0.093     -3.07

------------------------------Saturation indices-------------------------------

  Phase               SI** log IAP   log K(274 K,   1 atm)

  CO2(g)           -7.19     -8.31   -1.12  CO2
  H2O(g)           -2.18     -0.00    2.18  H2O
  Nahcolite        -4.55    -15.29  -10.74  NaHCO3
  Natron           -4.27     -5.09   -0.82  Na2CO3:10H2O
  Trona            -9.00    -20.38  -11.38  Na3H(CO3)2:2H2O

**For a gas, SI = log10(fugacity). Fugacity = pressure * phi / 1 atm.
  For ideal gases, phi = 1.

Reaction step 4.

Using solution 1.	
Using temperature 1.	
Using pressure 1.	
Using reaction 1.	

Reaction 1.	

	  2.221e-02 moles of the following reaction have been added:

	                 Relative
	Reactant            moles

	Na2CO3               1.00000

	                 Relative
	Element             moles
	C                    1.00000
	Na                   2.00000
	O                    3.00000

-----------------------------Solution composition------------------------------

	Elements           Molality       Moles

	C                 2.221e-02   2.221e-02
	Na                4.442e-02   4.442e-02

----------------------------Description of solution----------------------------

                                       pH  =  11.723      Charge balance
                                       pe  =   4.000      Adjusted to redox equilibrium
      Specific Conductance (µS/cm,   1°C)  = 2188
                          Density (g/cm³)  =   1.00256
                               Volume (L)  =   0.99980
                        Viscosity (mPa s)  =   1.75262
                        Activity of water  =   0.999
                 Ionic strength (mol/kgw)  =   6.580e-02
                       Mass of water (kg)  =   1.000e+00
                 Total alkalinity (eq/kg)  =   4.442e-02
                       Total CO2 (mol/kg)  =   2.221e-02
                         Temperature (°C)  =   1.00
                  Electrical balance (eq)  =  -4.898e-14
 Percent error, 100*(Cat-|An|)/(Cat+|An|)  =  -0.00
                               Iterations  =  16
                         Gamma iterations  =   3
                      Osmotic coefficient  =   0.87846
                         Density of water  =   0.99990
                                  Total H  = 1.110124e+02
                                  Total O  = 5.557285e+01

----------------------------Distribution of species----------------------------

                                                    MacInnes  MacInnes
                                MacInnes       Log       Log       Log    mole V
   Species          Molality    Activity  Molality  Activity     Gamma   cm³/mol

   OH-             8.344e-04   6.718e-04    -3.079    -3.173    -0.094     -5.78
   H+              2.463e-12   1.890e-12   -11.609   -11.723    -0.115      0.00
   H2O             5.551e+01   9.989e-01     1.744    -0.000     0.000     18.02
C(4)          2.221e-02
   CO3-2           2.138e-02   9.110e-03    -1.670    -2.040    -0.370     -7.78
   HCO3-           8.344e-04   7.236e-04    -3.079    -3.140    -0.062     21.76
   CO2             4.877e-09   4.914e-09    -8.312    -8.309     0.003     33.55
Na            4.442e-02
   Na+             4.442e-02   3.548e-02    -1.352    -1.450    -0.098     -3.05

------------------------------Saturation indices-------------------------------

  Phase               SI** log IAP   log K(274 K,   1 atm)

  CO2(g)           -7.19     -8.31   -1.12  CO2
  H2O(g)           -2.18     -0.00    2.18  H2O
  Nahcolite        -4.47    -15.21  -10.74  NaHCO3
  Natron           -4.12     -4.95   -0.82  Na2CO3:10H2O
  Trona            -8.77    -20.16  -11.38  Na3H(CO3)2:2H2O

**For a gas, SI = log10(fugacity). Fugacity = pressure * phi / 1 atm.
  For ideal gases, phi = 1.

Reaction step 5.

Using solution 1.	
Using temperature 1.	
Using pressure 1.	
Using reaction 1.	

Reaction 1.	

	  4.425e-02 moles of the following reaction have been added:

	                 Relative
	Reactant            moles

	Na2CO3               1.00000

	                 Relative
	Element             moles
	C                    1.00000
	Na                   2.00000
	O                    3.00000

-----------------------------Solution composition------------------------------

	Elements           Molality       Moles

	C                 4.425e-02   4.425e-02
	Na                8.850e-02   8.850e-02

----------------------------Description of solution----------------------------

                                       pH  =  11.826      Charge balance
                                       pe  =   4.000      Adjusted to redox equilibrium
      Specific Conductance (µS/cm,   1°C)  = 4007
                          Density (g/cm³)  =   1.00516
                               Volume (L)  =   0.99953
                        Viscosity (mPa s)  =   1.77314
                        Activity of water  =   0.998
                 Ionic strength (mol/kgw)  =   1.316e-01
                       Mass of water (kg)  =   1.000e+00
                 Total alkalinity (eq/kg)  =   8.850e-02
                       Total CO2 (mol/kg)  =   4.425e-02
                         Temperature (°C)  =   1.00
                  Electrical balance (eq)  =  -1.537e-13
 Percent error, 100*(Cat-|An|)/(Cat+|An|)  =  -0.00
                               Iterations  =  16
                         Gamma iterations  =   3
                      Osmotic coefficient  =   0.84942
                         Density of water  =   0.99990
                                  Total H  = 1.110124e+02
                                  Total O  = 5.563897e+01

----------------------------Distribution of species----------------------------

                                                    MacInnes  MacInnes
                                MacInnes       Log       Log       Log    mole V
   Species          Molality    Activity  Molality  Activity     Gamma   cm³/mol

   OH-             1.118e-03   8.493e-04    -2.951    -3.071    -0.120     -5.63
   H+              2.135e-12   1.494e-12   -11.671   -11.826    -0.155      0.00
   H2O             5.551e+01   9.980e-01     1.744    -0.001     0.000     18.02
C(4)          4.425e-02
   CO3-2           4.313e-02   1.439e-02    -1.365    -1.842    -0.477     -7.23
   HCO3-           1.118e-03   9.035e-04    -2.951    -3.044    -0.093     22.21
   CO2             4.781e-09   4.853e-09    -8.321    -8.314     0.007     33.55
Na            8.850e-02
   Na+             8.850e-02   6.626e-02    -1.053    -1.179    -0.126     -2.87

------------------------------Saturation indices-------------------------------

  Phase               SI** log IAP   log K(274 K,   1 atm)

  CO2(g)           -7.19     -8.31   -1.12  CO2
  H2O(g)           -2.18     -0.00    2.18  H2O
  Nahcolite        -4.10    -14.85  -10.74  NaHCO3
  Natron           -3.38     -4.21   -0.82  Na2CO3:10H2O
  Trona            -7.66    -19.05  -11.38  Na3H(CO3)2:2H2O

**For a gas, SI = log10(fugacity). Fugacity = pressure * phi / 1 atm.
  For ideal gases, phi = 1.

Reaction step 6.

Using solution 1.	
Using temperature 1.	
Using pressure 1.	
Using reaction 1.	

Reaction 1.	

	  4.798e-02 moles of the following reaction have been added:

	                 Relative
	Reactant            moles

	Na2CO3               1.00000

	                 Relative
	Element             moles
	C                    1.00000
	Na                   2.00000
	O                    3.00000

-----------------------------Solution composition------------------------------

	Elements           Molality       Moles

	C                 4.798e-02   4.798e-02
	Na                9.596e-02   9.596e-02

----------------------------Description of solution----------------------------

                                       pH  =  11.837      Charge balance
                                       pe  =   4.000      Adjusted to redox equilibrium
      Specific Conductance (µS/cm,   1°C)  = 4297
                          Density (g/cm³)  =   1.00560
                               Volume (L)  =   0.99949
                        Viscosity (mPa s)  =   1.77669
                        Activity of water  =   0.998
                 Ionic strength (mol/kgw)  =   1.428e-01
                       Mass of water (kg)  =   1.000e+00
                 Total alkalinity (eq/kg)  =   9.596e-02
                       Total CO2 (mol/kg)  =   4.798e-02
                         Temperature (°C)  =   1.00
                  Electrical balance (eq)  =  -1.747e-13
 Percent error, 100*(Cat-|An|)/(Cat+|An|)  =  -0.00
                               Iterations  =  16
                         Gamma iterations  =   3
                      Osmotic coefficient  =   0.84588
                         Density of water  =   0.99990
                                  Total H  = 1.110124e+02
                                  Total O  = 5.565016e+01

----------------------------Distribution of species----------------------------

                                                    MacInnes  MacInnes
                                MacInnes       Log       Log       Log    mole V
   Species          Molality    Activity  Molality  Activity     Gamma   cm³/mol

   OH-             1.157e-03   8.724e-04    -2.937    -3.059    -0.123     -5.61
   H+              2.104e-12   1.454e-12   -11.677   -11.837    -0.160      0.00
   H2O             5.551e+01   9.978e-01     1.744    -0.001     0.000     18.02
C(4)          4.798e-02
   CO3-2           4.682e-02   1.514e-02    -1.330    -1.820    -0.490     -7.15
   HCO3-           1.157e-03   9.251e-04    -2.937    -3.034    -0.097     22.27
   CO2             4.759e-09   4.838e-09    -8.322    -8.315     0.007     33.55
Na            9.596e-02
   Na+             9.596e-02   7.125e-02    -1.018    -1.147    -0.129     -2.85

------------------------------Saturation indices-------------------------------

  Phase               SI** log IAP   log K(274 K,   1 atm)

  CO2(g)           -7.20     -8.32   -1.12  CO2
  H2O(g)           -2.18     -0.00    2.18  H2O
  Nahcolite        -4.06    -14.80  -10.74  NaHCO3
  Natron           -3.30     -4.12   -0.82  Na2CO3:10H2O
  Trona            -7.54    -18.92  -11.38  Na3H(CO3)2:2H2O

**For a gas, SI = log10(fugacity). Fugacity = pressure * phi / 1 atm.
  For ideal gases, phi = 1.

Reaction step 7.

Using solution 1.	
Using temperature 1.	
Using pressure 1.	
Using reaction 1.	

Reaction 1.	

	  6.729e-02 moles of the following reaction have been added:

	                 Relative
	Reactant            moles

	Na2CO3               1.00000

	                 Relative
	Element             moles
	C                    1.00000
	Na                   2.00000
	O                    3.00000

-----------------------------Solution composition------------------------------

	Elements           Molality       Moles

	C                 6.729e-02   6.729e-02
	Na                1.346e-01   1.346e-01

----------------------------Description of solution----------------------------

                                       pH  =  11.886      Charge balance
                                       pe  =   4.000      Adjusted to redox equilibrium
      Specific Conductance (µS/cm,   1°C)  = 5740
                          Density (g/cm³)  =   1.00785
                               Volume (L)  =   0.99928
                        Viscosity (mPa s)  =   1.79549
                        Activity of water  =   0.997
                 Ionic strength (mol/kgw)  =   2.005e-01
                       Mass of water (kg)  =   1.000e+00
                 Total alkalinity (eq/kg)  =   1.346e-01
                       Total CO2 (mol/kg)  =   6.729e-02
                         Temperature (°C)  =   1.00
                  Electrical balance (eq)  =  -2.975e-13
 Percent error, 100*(Cat-|An|)/(Cat+|An|)  =  -0.00
                               Iterations  =  16
                         Gamma iterations  =   3
                      Osmotic coefficient  =   0.83076
                         Density of water  =   0.99990
                                  Total H  = 1.110124e+02
                                  Total O  = 5.570809e+01

----------------------------Distribution of species----------------------------

                                                    MacInnes  MacInnes
                                MacInnes       Log       Log       Log    mole V
   Species          Molality    Activity  Molality  Activity     Gamma   cm³/mol

   OH-             1.333e-03   9.746e-04    -2.875    -3.011    -0.136     -5.49
   H+              1.990e-12   1.300e-12   -11.701   -11.886    -0.185      0.00
   H2O             5.551e+01   9.970e-01     1.744    -0.001     0.000     18.02
C(4)          6.729e-02
   CO3-2           6.596e-02   1.857e-02    -1.181    -1.731    -0.550     -6.78
   HCO3-           1.333e-03   1.015e-03    -2.875    -2.994    -0.118     22.52
   CO2             4.643e-09   4.751e-09    -8.333    -8.323     0.010     33.55
Na            1.346e-01
   Na+             1.346e-01   9.634e-02    -0.871    -1.016    -0.145     -2.74

------------------------------Saturation indices-------------------------------

  Phase               SI** log IAP   log K(274 K,   1 atm)

  CO2(g)           -7.20     -8.32   -1.12  CO2
  H2O(g)           -2.18     -0.00    2.18  H2O
  Nahcolite        -3.89    -14.63  -10.74  NaHCO3
  Natron           -2.95     -3.78   -0.82  Na2CO3:10H2O
  Trona            -7.02    -18.40  -11.38  Na3H(CO3)2:2H2O

**For a gas, SI = log10(fugacity). Fugacity = pressure * phi / 1 atm.
  For ideal gases, phi = 1.

Reaction step 8.

Using solution 1.	
Using temperature 1.	
Using pressure 1.	
Using reaction 1.	

Reaction 1.	

	  6.737e-02 moles of the following reaction have been added:

	                 Relative
	Reactant            moles

	Na2CO3               1.00000

	                 Relative
	Element             moles
	C                    1.00000
	Na                   2.00000
	O                    3.00000

-----------------------------Solution composition------------------------------

	Elements           Molality       Moles

	C                 6.737e-02   6.737e-02
	Na                1.347e-01   1.347e-01

----------------------------Description of solution----------------------------

                                       pH  =  11.886      Charge balance
                                       pe  =   4.000      Adjusted to redox equilibrium
      Specific Conductance (µS/cm,   1°C)  = 5746
                          Density (g/cm³)  =   1.00786
                               Volume (L)  =   0.99928
                        Viscosity (mPa s)  =   1.79557
                        Activity of water  =   0.997
                 Ionic strength (mol/kgw)  =   2.008e-01
                       Mass of water (kg)  =   1.000e+00
                 Total alkalinity (eq/kg)  =   1.347e-01
                       Total CO2 (mol/kg)  =   6.737e-02
                         Temperature (°C)  =   1.00
                  Electrical balance (eq)  =  -2.980e-13
 Percent error, 100*(Cat-|An|)/(Cat+|An|)  =  -0.00
                               Iterations  =  16
                         Gamma iterations  =   3
                      Osmotic coefficient  =   0.83070
                         Density of water  =   0.99990
                                  Total H  = 1.110124e+02
                                  Total O  = 5.570833e+01

----------------------------Distribution of species----------------------------

                                                    MacInnes  MacInnes
                                MacInnes       Log       Log       Log    mole V
   Species          Molality    Activity  Molality  Activity     Gamma   cm³/mol

   OH-             1.334e-03   9.750e-04    -2.875    -3.011    -0.136     -5.49
   H+              1.990e-12   1.300e-12   -11.701   -11.886    -0.185      0.00
   H2O             5.551e+01   9.970e-01     1.744    -0.001     0.000     18.02
C(4)          6.737e-02
   CO3-2           6.604e-02   1.859e-02    -1.180    -1.731    -0.551     -6.78
   HCO3-           1.334e-03   1.015e-03    -2.875    -2.993    -0.118     22.52
   CO2             4.643e-09   4.750e-09    -8.333    -8.323     0.010     33.55
Na            1.347e-01
   Na+             1.347e-01   9.644e-02    -0.870    -1.016    -0.145     -2.74

------------------------------Saturation indices-------------------------------

  Phase               SI** log IAP   log K(274 K,   1 atm)

  CO2(g)           -7.20     -8.32   -1.12  CO2
  H2O(g)           -2.18     -0.00    2.18  H2O
  Nahcolite        -3.89    -14.63  -10.74  NaHCO3
  Natron           -2.95     -3.78   -0.82  Na2CO3:10H2O
  Trona            -7.01    -18.40  -11.38  Na3H(CO3)2:2H2O

**For a gas, SI = log10(fugacity). Fugacity = pressure * phi / 1 atm.
  For ideal gases, phi = 1.

Reaction step 9.

Using solution 1.	
Using temperature 1.	
Using pressure 1.	
Using reaction 1.	

Reaction 1.	

	  9.060e-02 moles of the following reaction have been added:

	                 Relative
	Reactant            moles

	Na2CO3               1.00000

	                 Relative
	Element             moles
	C                    1.00000
	Na                   2.00000
	O                    3.00000

-----------------------------Solution composition------------------------------

	Elements           Molality       Moles

	C                 9.060e-02   9.060e-02
	Na                1.812e-01   1.812e-01

----------------------------Description of solution----------------------------

                                       pH  =  11.928      Charge balance
                                       pe  =   4.000      Adjusted to redox equilibrium
      Specific Conductance (µS/cm,   1°C)  = 7375
                          Density (g/cm³)  =   1.01056
                               Volume (L)  =   0.99906
                        Viscosity (mPa s)  =   1.81910
                        Activity of water  =   0.996
                 Ionic strength (mol/kgw)  =   2.703e-01
                       Mass of water (kg)  =   1.000e+00
                 Total alkalinity (eq/kg)  =   1.812e-01
                       Total CO2 (mol/kg)  =   9.060e-02
                         Temperature (°C)  =   1.00
                  Electrical balance (eq)  =  -4.786e-13
 Percent error, 100*(Cat-|An|)/(Cat+|An|)  =  -0.00
                               Iterations  =  16
                         Gamma iterations  =   3
                      Osmotic coefficient  =   0.81684
                         Density of water  =   0.99990
                                  Total H  = 1.110124e+02
                                  Total O  = 5.577802e+01

----------------------------Distribution of species----------------------------

                                                    MacInnes  MacInnes
                                MacInnes       Log       Log       Log    mole V
   Species          Molality    Activity  Molality  Activity     Gamma   cm³/mol

   OH-             1.507e-03   1.073e-03    -2.822    -2.969    -0.148     -5.36
   H+              1.908e-12   1.180e-12   -11.719   -11.928    -0.209      0.00
   H2O             5.551e+01   9.960e-01     1.744    -0.002     0.000     18.02
C(4)          9.060e-02
   CO3-2           8.910e-02   2.202e-02    -1.050    -1.657    -0.607     -6.40
   HCO3-           1.507e-03   1.092e-03    -2.822    -2.962    -0.140     22.75
   CO2             4.502e-09   4.643e-09    -8.347    -8.333     0.013     33.55
Na            1.812e-01
   Na+             1.812e-01   1.252e-01    -0.742    -0.902    -0.160     -2.62

------------------------------Saturation indices-------------------------------

  Phase               SI** log IAP   log K(274 K,   1 atm)

  CO2(g)           -7.21     -8.33   -1.12  CO2
  H2O(g)           -2.18     -0.00    2.18  H2O
  Nahcolite        -3.75    -14.49  -10.74  NaHCO3
  Natron           -2.65     -3.48   -0.82  Na2CO3:10H2O
  Trona            -6.57    -17.95  -11.38  Na3H(CO3)2:2H2O

**For a gas, SI = log10(fugacity). Fugacity = pressure * phi / 1 atm.
  For ideal gases, phi = 1.

Reaction step 10.

Using solution 1.	
Using temperature 1.	
Using pressure 1.	
Using reaction 1.	

Reaction 1.	

	  1.276e-01 moles of the following reaction have been added:

	                 Relative
	Reactant            moles

	Na2CO3               1.00000

	                 Relative
	Element             moles
	C                    1.00000
	Na                   2.00000
	O                    3.00000

-----------------------------Solution composition------------------------------

	Elements           Molality       Moles

	C                 1.276e-01   1.276e-01
	Na                2.553e-01   2.553e-01

----------------------------Description of solution----------------------------

                                       pH  =  11.976      Charge balance
                                       pe  =   4.000      Adjusted to redox equilibrium
      Specific Conductance (µS/cm,   1°C)  = 9791
                          Density (g/cm³)  =   1.01481
                               Volume (L)  =   0.99873
                        Viscosity (mPa s)  =   1.85858
                        Activity of water  =   0.994
                 Ionic strength (mol/kgw)  =   3.812e-01
                       Mass of water (kg)  =   1.000e+00
                 Total alkalinity (eq/kg)  =   2.553e-01
                       Total CO2 (mol/kg)  =   1.276e-01
                         Temperature (°C)  =   1.00
                  Electrical balance (eq)  =  -8.464e-13
 Percent error, 100*(Cat-|An|)/(Cat+|An|)  =  -0.00
                               Iterations  =  16
                         Gamma iterations  =   3
                      Osmotic coefficient  =   0.79967
                         Density of water  =   0.99990
                                  Total H  = 1.110124e+02
                                  Total O  = 5.588911e+01

----------------------------Distribution of species----------------------------

                                                    MacInnes  MacInnes
                                MacInnes       Log       Log       Log    mole V
   Species          Molality    Activity  Molality  Activity     Gamma   cm³/mol

   OH-             1.731e-03   1.197e-03    -2.762    -2.922    -0.160     -5.17
   H+              1.833e-12   1.056e-12   -11.737   -11.976    -0.239      0.00
   H2O             5.551e+01   9.945e-01     1.744    -0.002     0.000     18.02
C(4)          1.276e-01
   CO3-2           1.259e-01   2.647e-02    -0.900    -1.577    -0.677     -5.87
   HCO3-           1.731e-03   1.175e-03    -2.762    -2.930    -0.168     23.03
   CO2             4.290e-09   4.481e-09    -8.368    -8.349     0.019     33.55
Na            2.553e-01
   Na+             2.553e-01   1.688e-01    -0.593    -0.773    -0.180     -2.47

------------------------------Saturation indices-------------------------------

  Phase               SI** log IAP   log K(274 K,   1 atm)

  CO2(g)           -7.23     -8.35   -1.12  CO2
  H2O(g)           -2.18     -0.00    2.18  H2O
  Nahcolite        -3.58    -14.33  -10.74  NaHCO3
  Natron           -2.32     -3.15   -0.82  Na2CO3:10H2O
  Trona            -6.07    -17.45  -11.38  Na3H(CO3)2:2H2O

**For a gas, SI = log10(fugacity). Fugacity = pressure * phi / 1 atm.
  For ideal gases, phi = 1.

Reaction step 11.

Using solution 1.	
Using temperature 1.	
Using pressure 1.	
Using reaction 1.	

Reaction 1.	

	  1.314e-01 moles of the following reaction have been added:

	                 Relative
	Reactant            moles

	Na2CO3               1.00000

	                 Relative
	Element             moles
	C                    1.00000
	Na                   2.00000
	O                    3.00000

-----------------------------Solution composition------------------------------

	Elements           Molality       Moles

	C                 1.314e-01   1.314e-01
	Na                2.629e-01   2.629e-01

----------------------------Description of solution----------------------------

                                       pH  =  11.980      Charge balance
                                       pe  =   4.000      Adjusted to redox equilibrium
      Specific Conductance (µS/cm,   1°C)  = 10028
                          Density (g/cm³)  =   1.01525
                               Volume (L)  =   0.99870
                        Viscosity (mPa s)  =   1.86277
                        Activity of water  =   0.994
                 Ionic strength (mol/kgw)  =   3.926e-01
                       Mass of water (kg)  =   1.000e+00
                 Total alkalinity (eq/kg)  =   2.629e-01
                       Total CO2 (mol/kg)  =   1.314e-01
                         Temperature (°C)  =   1.00
                  Electrical balance (eq)  =  -8.899e-13
 Percent error, 100*(Cat-|An|)/(Cat+|An|)  =  -0.00
                               Iterations  =  16
                         Gamma iterations  =   3
                      Osmotic coefficient  =   0.79812
                         Density of water  =   0.99990
                                  Total H  = 1.110124e+02
                                  Total O  = 5.590051e+01

----------------------------Distribution of species----------------------------

                                                    MacInnes  MacInnes
                                MacInnes       Log       Log       Log    mole V
   Species          Molality    Activity  Molality  Activity     Gamma   cm³/mol

   OH-             1.752e-03   1.208e-03    -2.757    -2.918    -0.162     -5.15
   H+              1.827e-12   1.047e-12   -11.738   -11.980    -0.242      0.00
   H2O             5.551e+01   9.943e-01     1.744    -0.002     0.000     18.02
C(4)          1.314e-01
   CO3-2           1.297e-01   2.688e-02    -0.887    -1.571    -0.684     -5.82
   HCO3-           1.752e-03   1.182e-03    -2.757    -2.927    -0.171     23.06
   CO2             4.269e-09   4.465e-09    -8.370    -8.350     0.019     33.55
Na            2.629e-01
   Na+             2.629e-01   1.731e-01    -0.580    -0.762    -0.181     -2.45

------------------------------Saturation indices-------------------------------

  Phase               SI** log IAP   log K(274 K,   1 atm)

  CO2(g)           -7.23     -8.35   -1.12  CO2
  H2O(g)           -2.18     -0.00    2.18  H2O
  Nahcolite        -3.57    -14.31  -10.74  NaHCO3
  Natron           -2.29     -3.12   -0.82  Na2CO3:10H2O
  Trona            -6.03    -17.41  -11.38  Na3H(CO3)2:2H2O

**For a gas, SI = log10(fugacity). Fugacity = pressure * phi / 1 atm.
  For ideal gases, phi = 1.

Reaction step 12.

Using solution 1.	
Using temperature 1.	
Using pressure 1.	
Using reaction 1.	

Reaction 1.	

	  1.320e-01 moles of the following reaction have been added:

	                 Relative
	Reactant            moles

	Na2CO3               1.00000

	                 Relative
	Element             moles
	C                    1.00000
	Na                   2.00000
	O                    3.00000

-----------------------------Solution composition------------------------------

	Elements           Molality       Moles

	C                 1.320e-01   1.320e-01
	Na                2.639e-01   2.639e-01

----------------------------Description of solution----------------------------

                                       pH  =  11.981      Charge balance
                                       pe  =   4.000      Adjusted to redox equilibrium
      Specific Conductance (µS/cm,   1°C)  = 10062
                          Density (g/cm³)  =   1.01531
                               Volume (L)  =   0.99870
                        Viscosity (mPa s)  =   1.86337
                        Activity of water  =   0.994
                 Ionic strength (mol/kgw)  =   3.942e-01
                       Mass of water (kg)  =   1.000e+00
                 Total alkalinity (eq/kg)  =   2.639e-01
                       Total CO2 (mol/kg)  =   1.320e-01
                         Temperature (°C)  =   1.00
                  Electrical balance (eq)  =  -8.963e-13
 Percent error, 100*(Cat-|An|)/(Cat+|An|)  =  -0.00
                               Iterations  =  16
                         Gamma iterations  =   3
                      Osmotic coefficient  =   0.79790
                         Density of water  =   0.99990
                                  Total H  = 1.110124e+02
                                  Total O  = 5.590213e+01

----------------------------Distribution of species----------------------------

                                                    MacInnes  MacInnes
                                MacInnes       Log       Log       Log    mole V
   Species          Molality    Activity  Molality  Activity     Gamma   cm³/mol

   OH-             1.755e-03   1.209e-03    -2.756    -2.917    -0.162     -5.14
   H+              1.826e-12   1.045e-12   -11.738   -11.981    -0.242      0.00
   H2O             5.551e+01   9.943e-01     1.744    -0.002     0.000     18.02
C(4)          1.320e-01
   CO3-2           1.302e-01   2.693e-02    -0.885    -1.570    -0.684     -5.81
   HCO3-           1.755e-03   1.183e-03    -2.756    -2.927    -0.171     23.06
   CO2             4.266e-09   4.462e-09    -8.370    -8.350     0.019     33.55
Na            2.639e-01
   Na+             2.639e-01   1.737e-01    -0.578    -0.760    -0.182     -2.45

------------------------------Saturation indices-------------------------------

  Phase               SI** log IAP   log K(274 K,   1 atm)

  CO2(g)           -7.23     -8.35   -1.12  CO2
  H2O(g)           -2.18     -0.00    2.18  H2O
  Nahcolite        -3.57    -14.31  -10.74  NaHCO3
  Natron           -2.29     -3.11   -0.82  Na2CO3:10H2O
  Trona            -6.02    -17.41  -11.38  Na3H(CO3)2:2H2O

**For a gas, SI = log10(fugacity). Fugacity = pressure * phi / 1 atm.
  For ideal gases, phi = 1.

Reaction step 13.

Using solution 1.	
Using temperature 1.	
Using pressure 1.	
Using reaction 1.	

Reaction 1.	

	  1.811e-01 moles of the following reaction have been added:

	                 Relative
	Reactant            moles

	Na2CO3               1.00000

	                 Relative
	Element             moles
	C                    1.00000
	Na                   2.00000
	O                    3.00000

-----------------------------Solution composition------------------------------

	Elements           Molality       Moles

	C                 1.811e-01   1.811e-01
	Na                3.621e-01   3.621e-01

----------------------------Description of solution----------------------------

                                       pH  =  12.025      Charge balance
                                       pe  =   4.000      Adjusted to redox equilibrium
      Specific Conductance (µS/cm,   1°C)  = 12982
                          Density (g/cm³)  =   1.02088
                               Volume (L)  =   0.99834
                        Viscosity (mPa s)  =   1.91963
                        Activity of water  =   0.992
                 Ionic strength (mol/kgw)  =   5.412e-01
                       Mass of water (kg)  =   1.000e+00
                 Total alkalinity (eq/kg)  =   3.621e-01
                       Total CO2 (mol/kg)  =   1.811e-01
                         Temperature (°C)  =   1.00
                  Electrical balance (eq)  =  -1.568e-12
 Percent error, 100*(Cat-|An|)/(Cat+|An|)  =  -0.00
                               Iterations  =  17
                         Gamma iterations  =   3
                      Osmotic coefficient  =   0.78018
                         Density of water  =   0.99990
                                  Total H  = 1.110124e+02
                                  Total O  = 5.604940e+01

----------------------------Distribution of species----------------------------

                                                    MacInnes  MacInnes
                                MacInnes       Log       Log       Log    mole V
   Species          Molality    Activity  Molality  Activity     Gamma   cm³/mol

   OH-             1.986e-03   1.336e-03    -2.702    -2.874    -0.172     -4.90
   H+              1.774e-12   9.444e-13   -11.751   -12.025    -0.274      0.00
   H2O             5.551e+01   9.924e-01     1.744    -0.003     0.000     18.02
C(4)          1.811e-01
   CO3-2           1.791e-01   3.149e-02    -0.747    -1.502    -0.755     -5.22
   HCO3-           1.986e-03   1.250e-03    -2.702    -2.903    -0.201     23.35
   CO2             4.013e-09   4.268e-09    -8.397    -8.370     0.027     33.55
Na            3.621e-01
   Na+             3.621e-01   2.276e-01    -0.441    -0.643    -0.202     -2.28

------------------------------Saturation indices-------------------------------

  Phase               SI** log IAP   log K(274 K,   1 atm)

  CO2(g)           -7.25     -8.37   -1.12  CO2
  H2O(g)           -2.18     -0.00    2.18  H2O
  Nahcolite        -3.43    -14.17  -10.74  NaHCO3
  Natron           -2.00     -2.82   -0.82  Na2CO3:10H2O
  Trona            -5.58    -16.96  -11.38  Na3H(CO3)2:2H2O

**For a gas, SI = log10(fugacity). Fugacity = pressure * phi / 1 atm.
  For ideal gases, phi = 1.

Reaction step 14.

Using solution 1.	
Using temperature 1.	
Using pressure 1.	
Using reaction 1.	

Reaction 1.	

	  2.477e-01 moles of the following reaction have been added:

	                 Relative
	Reactant            moles

	Na2CO3               1.00000

	                 Relative
	Element             moles
	C                    1.00000
	Na                   2.00000
	O                    3.00000

-----------------------------Solution composition------------------------------

	Elements           Molality       Moles

	C                 2.477e-01   2.477e-01
	Na                4.955e-01   4.955e-01

----------------------------Description of solution----------------------------

                                       pH  =  12.068      Charge balance
                                       pe  =   4.000      Adjusted to redox equilibrium
      Specific Conductance (µS/cm,   1°C)  = 16589
                          Density (g/cm³)  =   1.02835
                               Volume (L)  =   0.99796
                        Viscosity (mPa s)  =   2.00217
                        Activity of water  =   0.990
                 Ionic strength (mol/kgw)  =   7.410e-01
                       Mass of water (kg)  =   1.000e+00
                 Total alkalinity (eq/kg)  =   4.955e-01
                       Total CO2 (mol/kg)  =   2.477e-01
                         Temperature (°C)  =   1.00
                  Electrical balance (eq)  =  -2.820e-12
 Percent error, 100*(Cat-|An|)/(Cat+|An|)  =  -0.00
                               Iterations  =  17
                         Gamma iterations  =   3
                      Osmotic coefficient  =   0.76025
                         Density of water  =   0.99990
                                  Total H  = 1.110124e+02
                                  Total O  = 5.624941e+01

----------------------------Distribution of species----------------------------

                                                    MacInnes  MacInnes
                                MacInnes       Log       Log       Log    mole V
   Species          Molality    Activity  Molality  Activity     Gamma   cm³/mol

   OH-             2.233e-03   1.473e-03    -2.651    -2.832    -0.181     -4.59
   H+              1.734e-12   8.542e-13   -11.761   -12.068    -0.308      0.00
   H2O             5.551e+01   9.898e-01     1.744    -0.004     0.000     18.02
C(4)          2.477e-01
   CO3-2           2.455e-01   3.628e-02    -0.610    -1.440    -0.830     -4.52
   HCO3-           2.233e-03   1.302e-03    -2.651    -2.885    -0.234     23.65
   CO2             3.707e-09   4.033e-09    -8.431    -8.394     0.037     33.55
Na            4.955e-01
   Na+             4.955e-01   2.958e-01    -0.305    -0.529    -0.224     -2.08

------------------------------Saturation indices-------------------------------

  Phase               SI** log IAP   log K(274 K,   1 atm)

  CO2(g)           -7.27     -8.39   -1.12  CO2
  H2O(g)           -2.18     -0.00    2.18  H2O
  Nahcolite        -3.30    -14.04  -10.74  NaHCO3
  Natron           -1.72     -2.54   -0.82  Na2CO3:10H2O
  Trona            -5.16    -16.54  -11.38  Na3H(CO3)2:2H2O

**For a gas, SI = log10(fugacity). Fugacity = pressure * phi / 1 atm.
  For ideal gases, phi = 1.

Reaction step 15.

Using solution 1.	
Using temperature 1.	
Using pressure 1.	
Using reaction 1.	

Reaction 1.	

	  3.770e-01 moles of the following reaction have been added:

	                 Relative
	Reactant            moles

	Na2CO3               1.00000

	                 Relative
	Element             moles
	C                    1.00000
	Na                   2.00000
	O                    3.00000

-----------------------------Solution composition------------------------------

	Elements           Molality       Moles

	C                 3.770e-01   3.770e-01
	Na                7.540e-01   7.539e-01

----------------------------Description of solution----------------------------

                                       pH  =  12.127      Charge balance
                                       pe  =   4.000      Adjusted to redox equilibrium
      Specific Conductance (µS/cm,   1°C)  = 22665
                          Density (g/cm³)  =   1.04255
                               Volume (L)  =   0.99751
                        Viscosity (mPa s)  =   2.18131
                        Activity of water  =   0.985
                 Ionic strength (mol/kgw)  =   1.128e+00
                       Mass of water (kg)  =   1.000e+00
                 Total alkalinity (eq/kg)  =   7.540e-01
                       Total CO2 (mol/kg)  =   3.770e-01
                         Temperature (°C)  =   1.00
                  Electrical balance (eq)  =  -5.218e-11
 Percent error, 100*(Cat-|An|)/(Cat+|An|)  =  -0.00
                               Iterations  =  19
                         Gamma iterations  =   4
                      Osmotic coefficient  =   0.72881
                         Density of water  =   0.99990
                                  Total H  = 1.110124e+02
                                  Total O  = 5.663713e+01

----------------------------Distribution of species----------------------------

                                                    MacInnes  MacInnes
                                MacInnes       Log       Log       Log    mole V
   Species          Molality    Activity  Molality  Activity     Gamma   cm³/mol

   OH-             2.581e-03   1.679e-03    -2.588    -2.775    -0.187     -4.01
   H+              1.693e-12   7.459e-13   -11.771   -12.127    -0.356      0.00
   H2O             5.551e+01   9.852e-01     1.744    -0.006     0.000     18.02
C(4)          3.770e-01
   CO3-2           3.744e-01   4.280e-02    -0.427    -1.369    -0.942     -3.37
   HCO3-           2.581e-03   1.342e-03    -2.588    -2.872    -0.284     24.10
   CO2             3.207e-09   3.645e-09    -8.494    -8.438     0.056     33.55
Na            7.540e-01
   Na+             7.540e-01   4.155e-01    -0.123    -0.381    -0.259     -1.76

------------------------------Saturation indices-------------------------------

  Phase               SI** log IAP   log K(274 K,   1 atm)

  CO2(g)           -7.32     -8.44   -1.12  CO2
  H2O(g)           -2.19     -0.01    2.18  H2O
  Nahcolite        -3.14    -13.88  -10.74  NaHCO3
  Natron           -1.37     -2.20   -0.82  Na2CO3:10H2O
  Trona            -4.64    -16.02  -11.38  Na3H(CO3)2:2H2O

**For a gas, SI = log10(fugacity). Fugacity = pressure * phi / 1 atm.
  For ideal gases, phi = 1.

Reaction step 16.

Using solution 1.	
Using temperature 1.	
Using pressure 1.	
Using reaction 1.	

Reaction 1.	

	  4.923e-01 moles of the following reaction have been added:

	                 Relative
	Reactant            moles

	Na2CO3               1.00000

	                 Relative
	Element             moles
	C                    1.00000
	Na                   2.00000
	O                    3.00000

-----------------------------Solution composition------------------------------

	Elements           Molality       Moles

	C                 4.923e-01   4.923e-01
	Na                9.846e-01   9.846e-01

----------------------------Description of solution----------------------------

                                       pH  =  12.166      Charge balance
                                       pe  =   4.000      Adjusted to redox equilibrium
      Specific Conductance (µS/cm,   1°C)  = 27268
                          Density (g/cm³)  =   1.05493
                               Volume (L)  =   0.99739
                        Viscosity (mPa s)  =   2.36173
                        Activity of water  =   0.981
                 Ionic strength (mol/kgw)  =   1.474e+00
                       Mass of water (kg)  =   9.999e-01
                 Total alkalinity (eq/kg)  =   9.846e-01
                       Total CO2 (mol/kg)  =   4.923e-01
                         Temperature (°C)  =   1.00
                  Electrical balance (eq)  =  -8.451e-10
 Percent error, 100*(Cat-|An|)/(Cat+|An|)  =  -0.00
                               Iterations  =  20
                         Gamma iterations  =   4
                      Osmotic coefficient  =   0.70573
                         Density of water  =   0.99990
                                  Total H  = 1.110124e+02
                                  Total O  = 5.698309e+01

----------------------------Distribution of species----------------------------

                                                    MacInnes  MacInnes
                                MacInnes       Log       Log       Log    mole V
   Species          Molality    Activity  Molality  Activity     Gamma   cm³/mol

   OH-             2.803e-03   1.827e-03    -2.552    -2.738    -0.186     -3.52
   H+              1.668e-12   6.827e-13   -11.778   -12.166    -0.388      0.00
   H2O             5.551e+01   9.814e-01     1.744    -0.008     0.000     18.02
C(4)          4.923e-01
   CO3-2           4.895e-01   4.679e-02    -0.310    -1.330    -1.020     -2.49
   HCO3-           2.803e-03   1.342e-03    -2.552    -2.872    -0.320     24.41
   CO2             2.834e-09   3.351e-09    -8.548    -8.475     0.073     33.55
Na            9.846e-01
   Na+             9.846e-01   5.116e-01    -0.007    -0.291    -0.284     -1.52

------------------------------Saturation indices-------------------------------

  Phase               SI** log IAP   log K(274 K,   1 atm)

  CO2(g)           -7.35     -8.47   -1.12  CO2
  H2O(g)           -2.19     -0.01    2.18  H2O
  Nahcolite        -3.04    -13.79  -10.74  NaHCO3
  Natron           -1.17     -1.99   -0.82  Na2CO3:10H2O
  Trona            -4.33    -15.72  -11.38  Na3H(CO3)2:2H2O

**For a gas, SI = log10(fugacity). Fugacity = pressure * phi / 1 atm.
  For ideal gases, phi = 1.

Reaction step 17.

Using solution 1.	
Using temperature 1.	
Using pressure 1.	
Using reaction 1.	

Reaction 1.	

	  6.287e-01 moles of the following reaction have been added:

	                 Relative
	Reactant            moles

	Na2CO3               1.00000

	                 Relative
	Element             moles
	C                    1.00000
	Na                   2.00000
	O                    3.00000

-----------------------------Solution composition------------------------------

	Elements           Molality       Moles

	C                 6.287e-01   6.287e-01
	Na                1.257e+00   1.257e+00

----------------------------Description of solution----------------------------

                                       pH  =  12.202      Charge balance
                                       pe  =   4.000      Adjusted to redox equilibrium
      Specific Conductance (µS/cm,   1°C)  = 31900
                          Density (g/cm³)  =   1.06926
                               Volume (L)  =   0.99754
                        Viscosity (mPa s)  =   2.59978
                        Activity of water  =   0.977
                 Ionic strength (mol/kgw)  =   1.883e+00
                       Mass of water (kg)  =   9.999e-01
                 Total alkalinity (eq/kg)  =   1.257e+00
                       Total CO2 (mol/kg)  =   6.287e-01
                         Temperature (°C)  =   1.00
                  Electrical balance (eq)  =  -3.485e-09
 Percent error, 100*(Cat-|An|)/(Cat+|An|)  =  -0.00
                               Iterations  =  20
                         Gamma iterations  =   4
                      Osmotic coefficient  =   0.68270
                         Density of water  =   0.99990
                                  Total H  = 1.110124e+02
                                  Total O  = 5.739229e+01

----------------------------Distribution of species----------------------------

                                                    MacInnes  MacInnes
                                MacInnes       Log       Log       Log    mole V
   Species          Molality    Activity  Molality  Activity     Gamma   cm³/mol

   OH-             2.999e-03   1.980e-03    -2.523    -2.703    -0.180     -2.96
   H+              1.640e-12   6.274e-13   -11.785   -12.202    -0.417      0.00
   H2O             5.551e+01   9.770e-01     1.744    -0.010     0.000     18.02
C(4)          6.287e-01
   CO3-2           6.257e-01   5.016e-02    -0.204    -1.300    -1.096     -1.56
   HCO3-           2.999e-03   1.322e-03    -2.523    -2.879    -0.356     24.71
   CO2             2.461e-09   3.047e-09    -8.609    -8.516     0.093     33.55
Na            1.257e+00
   Na+             1.257e+00   6.159e-01     0.099    -0.210    -0.310     -1.27

------------------------------Saturation indices-------------------------------

  Phase               SI** log IAP   log K(274 K,   1 atm)

  CO2(g)           -7.40     -8.52   -1.12  CO2
  H2O(g)           -2.19     -0.01    2.18  H2O
  Nahcolite        -2.97    -13.71  -10.74  NaHCO3
  Natron           -1.00     -1.82   -0.82  Na2CO3:10H2O
  Trona            -4.07    -15.45  -11.38  Na3H(CO3)2:2H2O

**For a gas, SI = log10(fugacity). Fugacity = pressure * phi / 1 atm.
  For ideal gases, phi = 1.

------------------
End of simulation.
------------------

------------------------------------
Reading input data for simulation 3.
------------------------------------

	USE solution 1
	REACTION_TEMPERATURE
	 5.000000
	REACTION_PRESSURE
	 1.000000
	REACTION
	 Na2CO3 1
	0 0.055190 0.055270 0.115240 0.115340 0.224570 0.225290 0.303770 0.303840 0.416730 0.417400 0.568920 0.571070 0.684230 0.684760 0.839720 0.841380 0.954540
	USER_GRAPH
	 -headings 5.oC
	10 data 0, -10.706899, -10.628805, -9.559741, -9.366745, -7.550994, -7.555211, -6.458462, -6.280894, -5.045167, -5.018425, -3.264779, -3.235555, -2.009736, -2.006483, -0.482243, -0.378777, 0.785605,
	20 dim d(18)
	30 read d(1), d(2), d(3), d(4), d(5), d(6), d(7), d(8), d(9), d(10), d(11), d(12), d(13), d(14), d(15), d(16), d(17), d(18),
	40 if step_no = 1 then put(rho, 10)
	50 if step_no > 1 then Vmol = (1e3 + tot("C") * 105.9907) / (tot("C") * rho) - 1e3 / (tot("C") * get(10))
	60 if step_no = 1 then dif = 0 else dif = Vmol - d(step_no)
	62 if step_no = 1 then goto 90
	70 plot_xy tot("C"), d(step_no), line_w = 0, color = Red
	80 plot_xy tot("C"), Vmol, symbol = None, color = Red
	90 end
	END
-----------------------------------------
Beginning of batch-reaction calculations.
-----------------------------------------

Reaction step 1.

Using solution 1.	
Using temperature 1.	
Using pressure 1.	
Using reaction 1.	

Reaction 1.	

	  0.000e+00 moles of the following reaction have been added:

	                 Relative
	Reactant            moles

	Na2CO3               1.00000

	                 Relative
	Element             moles
	C                    1.00000
	Na                   2.00000
	O                    3.00000

-----------------------------Solution composition------------------------------

	Elements           Molality       Moles

	Pure water     

----------------------------Description of solution----------------------------

                                       pH  =   7.365      Charge balance
                                       pe  =   4.000      Adjusted to redox equilibrium
      Specific Conductance (µS/cm,   5°C)  = 0
                          Density (g/cm³)  =   0.99996
                               Volume (L)  =   1.00004
                        Viscosity (mPa s)  =   1.51818
                        Activity of water  =   1.000
                 Ionic strength (mol/kgw)  =   4.318e-08
                       Mass of water (kg)  =   1.000e+00
                 Total alkalinity (eq/kg)  =  -1.455e-19
                         Temperature (°C)  =   5.00
                  Electrical balance (eq)  =   1.455e-19
 Percent error, 100*(Cat-|An|)/(Cat+|An|)  =   0.00
                               Iterations  =   5
                         Gamma iterations  =   2
                      Osmotic coefficient  =   0.99992
                         Density of water  =   0.99996
                                  Total H  = 1.110124e+02
                                  Total O  = 5.550622e+01

----------------------------Distribution of species----------------------------

                                                    MacInnes  MacInnes
                                MacInnes       Log       Log       Log    mole V
   Species          Molality    Activity  Molality  Activity     Gamma   cm³/mol

   H+              4.318e-08   4.317e-08    -7.365    -7.365    -0.000      0.00
   OH-             4.318e-08   4.317e-08    -7.365    -7.365    -0.000     -5.54
   H2O             5.551e+01   1.000e+00     1.744    -0.000     0.000     18.02

------------------------------Saturation indices-------------------------------

  Phase               SI** log IAP   log K(278 K,   1 atm)

  H2O(g)           -2.06     -0.00    2.06  H2O

**For a gas, SI = log10(fugacity). Fugacity = pressure * phi / 1 atm.
  For ideal gases, phi = 1.

Reaction step 2.

Using solution 1.	
Using temperature 1.	
Using pressure 1.	
Using reaction 1.	

Reaction 1.	

	  5.519e-02 moles of the following reaction have been added:

	                 Relative
	Reactant            moles

	Na2CO3               1.00000

	                 Relative
	Element             moles
	C                    1.00000
	Na                   2.00000
	O                    3.00000

-----------------------------Solution composition------------------------------

	Elements           Molality       Moles

	C                 5.519e-02   5.519e-02
	Na                1.104e-01   1.104e-01

----------------------------Description of solution----------------------------

                                       pH  =  11.744      Charge balance
                                       pe  =   4.000      Adjusted to redox equilibrium
      Specific Conductance (µS/cm,   5°C)  = 5530
                          Density (g/cm³)  =   1.00640
                               Volume (L)  =   0.99945
                        Viscosity (mPa s)  =   1.56555
                        Activity of water  =   0.997
                 Ionic strength (mol/kgw)  =   1.642e-01
                       Mass of water (kg)  =   1.000e+00
                 Total alkalinity (eq/kg)  =   1.104e-01
                       Total CO2 (mol/kg)  =   5.519e-02
                         Temperature (°C)  =   5.00
                  Electrical balance (eq)  =  -2.514e-13
 Percent error, 100*(Cat-|An|)/(Cat+|An|)  =  -0.00
                               Iterations  =  16
                         Gamma iterations  =   3
                      Osmotic coefficient  =   0.83966
                         Density of water  =   0.99996
                                  Total H  = 1.110124e+02
                                  Total O  = 5.567179e+01

----------------------------Distribution of species----------------------------

                                                    MacInnes  MacInnes
                                MacInnes       Log       Log       Log    mole V
   Species          Molality    Activity  Molality  Activity     Gamma   cm³/mol

   OH-             1.385e-03   1.031e-03    -2.858    -2.987    -0.128     -5.05
   H+              2.676e-12   1.804e-12   -11.572   -11.744    -0.171      0.00
   H2O             5.551e+01   9.975e-01     1.744    -0.001     0.000     18.02
C(4)          5.519e-02
   CO3-2           5.381e-02   1.639e-02    -1.269    -1.785    -0.516     -5.96
   HCO3-           1.385e-03   1.086e-03    -2.858    -2.964    -0.106     23.18
   CO2             6.176e-09   6.293e-09    -8.209    -8.201     0.008     33.79
Na            1.104e-01
   Na+             1.104e-01   8.065e-02    -0.957    -1.093    -0.136     -2.38

------------------------------Saturation indices-------------------------------

  Phase               SI** log IAP   log K(278 K,   1 atm)

  CO2(g)           -7.01     -8.20   -1.19  CO2
  H2O(g)           -2.06     -0.00    2.06  H2O
  Nahcolite        -3.88    -14.62  -10.74  NaHCO3
  Natron           -3.16     -3.98   -0.82  Na2CO3:10H2O
  Trona            -7.21    -18.60  -11.38  Na3H(CO3)2:2H2O

**For a gas, SI = log10(fugacity). Fugacity = pressure * phi / 1 atm.
  For ideal gases, phi = 1.

Reaction step 3.

Using solution 1.	
Using temperature 1.	
Using pressure 1.	
Using reaction 1.	

Reaction 1.	

	  5.527e-02 moles of the following reaction have been added:

	                 Relative
	Reactant            moles

	Na2CO3               1.00000

	                 Relative
	Element             moles
	C                    1.00000
	Na                   2.00000
	O                    3.00000

-----------------------------Solution composition------------------------------

	Elements           Molality       Moles

	C                 5.527e-02   5.527e-02
	Na                1.105e-01   1.105e-01

----------------------------Description of solution----------------------------

                                       pH  =  11.744      Charge balance
                                       pe  =   4.000      Adjusted to redox equilibrium
      Specific Conductance (µS/cm,   5°C)  = 5537
                          Density (g/cm³)  =   1.00641
                               Volume (L)  =   0.99945
                        Viscosity (mPa s)  =   1.56562
                        Activity of water  =   0.997
                 Ionic strength (mol/kgw)  =   1.644e-01
                       Mass of water (kg)  =   1.000e+00
                 Total alkalinity (eq/kg)  =   1.105e-01
                       Total CO2 (mol/kg)  =   5.527e-02
                         Temperature (°C)  =   5.00
                  Electrical balance (eq)  =  -2.519e-13
 Percent error, 100*(Cat-|An|)/(Cat+|An|)  =  -0.00
                               Iterations  =  16
                         Gamma iterations  =   3
                      Osmotic coefficient  =   0.83960
                         Density of water  =   0.99996
                                  Total H  = 1.110124e+02
                                  Total O  = 5.567203e+01

----------------------------Distribution of species----------------------------

                                                    MacInnes  MacInnes
                                MacInnes       Log       Log       Log    mole V
   Species          Molality    Activity  Molality  Activity     Gamma   cm³/mol

   OH-             1.386e-03   1.031e-03    -2.858    -2.987    -0.128     -5.04
   H+              2.676e-12   1.803e-12   -11.573   -11.744    -0.171      0.00
   H2O             5.551e+01   9.975e-01     1.744    -0.001     0.000     18.02
C(4)          5.527e-02
   CO3-2           5.389e-02   1.641e-02    -1.269    -1.785    -0.516     -5.96
   HCO3-           1.386e-03   1.086e-03    -2.858    -2.964    -0.106     23.19
   CO2             6.175e-09   6.292e-09    -8.209    -8.201     0.008     33.79
Na            1.105e-01
   Na+             1.105e-01   8.075e-02    -0.956    -1.093    -0.136     -2.38

------------------------------Saturation indices-------------------------------

  Phase               SI** log IAP   log K(278 K,   1 atm)

  CO2(g)           -7.01     -8.20   -1.19  CO2
  H2O(g)           -2.06     -0.00    2.06  H2O
  Nahcolite        -3.88    -14.62  -10.74  NaHCO3
  Natron           -3.16     -3.98   -0.82  Na2CO3:10H2O
  Trona            -7.21    -18.59  -11.38  Na3H(CO3)2:2H2O

**For a gas, SI = log10(fugacity). Fugacity = pressure * phi / 1 atm.
  For ideal gases, phi = 1.

Reaction step 4.

Using solution 1.	
Using temperature 1.	
Using pressure 1.	
Using reaction 1.	

Reaction 1.	

	  1.152e-01 moles of the following reaction have been added:

	                 Relative
	Reactant            moles

	Na2CO3               1.00000

	                 Relative
	Element             moles
	C                    1.00000
	Na                   2.00000
	O                    3.00000

-----------------------------Solution composition------------------------------

	Elements           Molality       Moles

	C                 1.152e-01   1.152e-01
	Na                2.305e-01   2.305e-01

----------------------------Description of solution----------------------------

                                       pH  =  11.848      Charge balance
                                       pe  =   4.000      Adjusted to redox equilibrium
      Specific Conductance (µS/cm,   5°C)  = 10264
                          Density (g/cm³)  =   1.01324
                               Volume (L)  =   0.99899
                        Viscosity (mPa s)  =   1.62018
                        Activity of water  =   0.995
                 Ionic strength (mol/kgw)  =   3.439e-01
                       Mass of water (kg)  =   1.000e+00
                 Total alkalinity (eq/kg)  =   2.305e-01
                       Total CO2 (mol/kg)  =   1.152e-01
                         Temperature (°C)  =   5.00
                  Electrical balance (eq)  =  -8.210e-13
 Percent error, 100*(Cat-|An|)/(Cat+|An|)  =  -0.00
                               Iterations  =  16
                         Gamma iterations  =   3
                      Osmotic coefficient  =   0.80522
                         Density of water  =   0.99996
                                  Total H  = 1.110124e+02
                                  Total O  = 5.585194e+01

----------------------------Distribution of species----------------------------

                                                    MacInnes  MacInnes
                                MacInnes       Log       Log       Log    mole V
   Species          Molality    Activity  Molality  Activity     Gamma   cm³/mol

   OH-             1.877e-03   1.308e-03    -2.726    -2.883    -0.157     -4.71
   H+              2.415e-12   1.417e-12   -11.617   -11.848    -0.231      0.00
   H2O             5.551e+01   9.950e-01     1.744    -0.002     0.000     18.02
C(4)          1.152e-01
   CO3-2           1.134e-01   2.497e-02    -0.946    -1.603    -0.657     -4.99
   HCO3-           1.877e-03   1.299e-03    -2.726    -2.886    -0.160     23.75
   CO2             5.706e-09   5.934e-09    -8.244    -8.227     0.017     33.79
Na            2.305e-01
   Na+             2.305e-01   1.543e-01    -0.637    -0.812    -0.174     -2.11

------------------------------Saturation indices-------------------------------

  Phase               SI** log IAP   log K(278 K,   1 atm)

  CO2(g)           -7.04     -8.23   -1.19  CO2
  H2O(g)           -2.06     -0.00    2.06  H2O
  Nahcolite        -3.52    -14.26  -10.74  NaHCO3
  Natron           -2.42     -3.25   -0.82  Na2CO3:10H2O
  Trona            -6.11    -17.49  -11.38  Na3H(CO3)2:2H2O

**For a gas, SI = log10(fugacity). Fugacity = pressure * phi / 1 atm.
  For ideal gases, phi = 1.

Reaction step 5.

Using solution 1.	
Using temperature 1.	
Using pressure 1.	
Using reaction 1.	

Reaction 1.	

	  1.153e-01 moles of the following reaction have been added:

	                 Relative
	Reactant            moles

	Na2CO3               1.00000

	                 Relative
	Element             moles
	C                    1.00000
	Na                   2.00000
	O                    3.00000

-----------------------------Solution composition------------------------------

	Elements           Molality       Moles

	C                 1.153e-01   1.153e-01
	Na                2.307e-01   2.307e-01

----------------------------Description of solution----------------------------

                                       pH  =  11.849      Charge balance
                                       pe  =   4.000      Adjusted to redox equilibrium
      Specific Conductance (µS/cm,   5°C)  = 10272
                          Density (g/cm³)  =   1.01325
                               Volume (L)  =   0.99899
                        Viscosity (mPa s)  =   1.62027
                        Activity of water  =   0.995
                 Ionic strength (mol/kgw)  =   3.442e-01
                       Mass of water (kg)  =   1.000e+00
                 Total alkalinity (eq/kg)  =   2.307e-01
                       Total CO2 (mol/kg)  =   1.153e-01
                         Temperature (°C)  =   5.00
                  Electrical balance (eq)  =  -8.222e-13
 Percent error, 100*(Cat-|An|)/(Cat+|An|)  =  -0.00
                               Iterations  =  16
                         Gamma iterations  =   3
                      Osmotic coefficient  =   0.80518
                         Density of water  =   0.99996
                                  Total H  = 1.110124e+02
                                  Total O  = 5.585224e+01

----------------------------Distribution of species----------------------------

                                                    MacInnes  MacInnes
                                MacInnes       Log       Log       Log    mole V
   Species          Molality    Activity  Molality  Activity     Gamma   cm³/mol

   OH-             1.878e-03   1.309e-03    -2.726    -2.883    -0.157     -4.71
   H+              2.415e-12   1.417e-12   -11.617   -11.849    -0.232      0.00
   H2O             5.551e+01   9.950e-01     1.744    -0.002     0.000     18.02
C(4)          1.153e-01
   CO3-2           1.135e-01   2.498e-02    -0.945    -1.602    -0.657     -4.99
   HCO3-           1.878e-03   1.300e-03    -2.726    -2.886    -0.160     23.75
   CO2             5.705e-09   5.933e-09    -8.244    -8.227     0.017     33.79
Na            2.307e-01
   Na+             2.307e-01   1.544e-01    -0.637    -0.811    -0.174     -2.11

------------------------------Saturation indices-------------------------------

  Phase               SI** log IAP   log K(278 K,   1 atm)

  CO2(g)           -7.04     -8.23   -1.19  CO2
  H2O(g)           -2.06     -0.00    2.06  H2O
  Nahcolite        -3.52    -14.26  -10.74  NaHCO3
  Natron           -2.42     -3.25   -0.82  Na2CO3:10H2O
  Trona            -6.11    -17.49  -11.38  Na3H(CO3)2:2H2O

**For a gas, SI = log10(fugacity). Fugacity = pressure * phi / 1 atm.
  For ideal gases, phi = 1.

Reaction step 6.

Using solution 1.	
Using temperature 1.	
Using pressure 1.	
Using reaction 1.	

Reaction 1.	

	  2.246e-01 moles of the following reaction have been added:

	                 Relative
	Reactant            moles

	Na2CO3               1.00000

	                 Relative
	Element             moles
	C                    1.00000
	Na                   2.00000
	O                    3.00000

-----------------------------Solution composition------------------------------

	Elements           Molality       Moles

	C                 2.246e-01   2.246e-01
	Na                4.492e-01   4.491e-01

----------------------------Description of solution----------------------------

                                       pH  =  11.942      Charge balance
                                       pe  =   4.000      Adjusted to redox equilibrium
      Specific Conductance (µS/cm,   5°C)  = 17521
                          Density (g/cm³)  =   1.02542
                               Volume (L)  =   0.99842
                        Viscosity (mPa s)  =   1.73222
                        Activity of water  =   0.991
                 Ionic strength (mol/kgw)  =   6.713e-01
                       Mass of water (kg)  =   1.000e+00
                 Total alkalinity (eq/kg)  =   4.492e-01
                       Total CO2 (mol/kg)  =   2.246e-01
                         Temperature (°C)  =   5.00
                  Electrical balance (eq)  =  -2.676e-12
 Percent error, 100*(Cat-|An|)/(Cat+|An|)  =  -0.00
                               Iterations  =  17
                         Gamma iterations  =   3
                      Osmotic coefficient  =   0.76785
                         Density of water  =   0.99996
                                  Total H  = 1.110124e+02
                                  Total O  = 5.617993e+01

----------------------------Distribution of species----------------------------

                                                    MacInnes  MacInnes
                                MacInnes       Log       Log       Log    mole V
   Species          Molality    Activity  Molality  Activity     Gamma   cm³/mol

   OH-             2.436e-03   1.616e-03    -2.613    -2.792    -0.178     -4.17
   H+              2.274e-12   1.143e-12   -11.643   -11.942    -0.299      0.00
   H2O             5.551e+01   9.907e-01     1.744    -0.004     0.000     18.02
C(4)          2.246e-01
   CO3-2           2.221e-01   3.467e-02    -0.653    -1.460    -0.807     -3.72
   HCO3-           2.436e-03   1.454e-03    -2.613    -2.837    -0.224     24.34
   CO2             4.981e-09   5.377e-09    -8.303    -8.269     0.033     33.79
Na            4.492e-01
   Na+             4.492e-01   2.726e-01    -0.348    -0.565    -0.217     -1.76

------------------------------Saturation indices-------------------------------

  Phase               SI** log IAP   log K(278 K,   1 atm)

  CO2(g)           -7.08     -8.27   -1.19  CO2
  H2O(g)           -2.06     -0.00    2.06  H2O
  Nahcolite        -3.22    -13.97  -10.74  NaHCO3
  Natron           -1.80     -2.63   -0.82  Na2CO3:10H2O
  Trona            -5.18    -16.56  -11.38  Na3H(CO3)2:2H2O

**For a gas, SI = log10(fugacity). Fugacity = pressure * phi / 1 atm.
  For ideal gases, phi = 1.

Reaction step 7.

Using solution 1.	
Using temperature 1.	
Using pressure 1.	
Using reaction 1.	

Reaction 1.	

	  2.253e-01 moles of the following reaction have been added:

	                 Relative
	Reactant            moles

	Na2CO3               1.00000

	                 Relative
	Element             moles
	C                    1.00000
	Na                   2.00000
	O                    3.00000

[...]
Using solution 1.	
Using temperature 1.	
Using pressure 1.	
Using reaction 1.	

Reaction 1.	

	  4.994e-01 moles of the following reaction have been added:

	                 Relative
	Reactant            moles

	Na2CO3               1.00000

	                 Relative
	Element             moles
	C                    1.00000
	Na                   2.00000
	O                    3.00000

-----------------------------Solution composition------------------------------

	Elements           Molality       Moles

	C                 4.995e-01   4.994e-01
	Na                9.990e-01   9.988e-01

----------------------------Description of solution----------------------------

                                       pH  =  11.217      Charge balance
                                       pe  =   4.000      Adjusted to redox equilibrium
      Specific Conductance (µS/cm,  45°C)  = 80233
                          Density (g/cm³)  =   1.04084
                               Volume (L)  =   1.01162
                        Viscosity (mPa s)  =   0.78267
                        Activity of water  =   0.980
                 Ionic strength (mol/kgw)  =   1.489e+00
                       Mass of water (kg)  =   9.998e-01
                 Total alkalinity (eq/kg)  =   9.990e-01
                       Total CO2 (mol/kg)  =   4.995e-01
                         Temperature (°C)  =  45.00
                  Electrical balance (eq)  =  -2.488e-09
 Percent error, 100*(Cat-|An|)/(Cat+|An|)  =  -0.00
                               Iterations  =  19
                         Gamma iterations  =   4
                      Osmotic coefficient  =   0.73575
                         Density of water  =   0.99021
                                  Total H  = 1.110124e+02
                                  Total O  = 5.700442e+01

----------------------------Distribution of species----------------------------

                                                    MacInnes  MacInnes
                                MacInnes       Log       Log       Log    mole V
   Species          Molality    Activity  Molality  Activity     Gamma   cm³/mol

   OH-             9.865e-03   6.520e-03    -2.006    -2.186    -0.180     -0.80
   H+              1.625e-11   6.065e-12   -10.789   -11.217    -0.428      0.00
   H2O             5.551e+01   9.802e-01     1.744    -0.009     0.000     18.19
C(4)          4.995e-01
   CO3-2           4.896e-01   4.674e-02    -0.310    -1.330    -1.020      2.25
   HCO3-           9.865e-03   4.557e-03    -2.006    -2.341    -0.335     28.25
   CO2             4.524e-08   5.361e-08    -7.344    -7.271     0.074     35.73
Na            9.990e-01
   Na+             9.990e-01   5.224e-01    -0.000    -0.282    -0.282      0.54

------------------------------Saturation indices-------------------------------

  Phase               SI** log IAP   log K(318 K,   1 atm)

  CO2(g)           -5.60     -7.27   -1.67  CO2
  H2O(g)           -1.03     -0.01    1.03  H2O
  Nahcolite        -2.09    -12.83  -10.74  NaHCO3
  Natron           -1.16     -1.98   -0.82  Na2CO3:10H2O
  Trona            -3.36    -14.74  -11.38  Na3H(CO3)2:2H2O

**For a gas, SI = log10(fugacity). Fugacity = pressure * phi / 1 atm.
  For ideal gases, phi = 1.

Reaction step 5.

Using solution 1.	
Using temperature 1.	
Using pressure 1.	
Using reaction 1.	

Reaction 1.	

	  9.940e-01 moles of the following reaction have been added:

	                 Relative
	Reactant            moles

	Na2CO3               1.00000

	                 Relative
	Element             moles
	C                    1.00000
	Na                   2.00000
	O                    3.00000

-----------------------------Solution composition------------------------------

	Elements           Molality       Moles

	C                 9.942e-01   9.940e-01
	Na                1.988e+00   1.988e+00

----------------------------Description of solution----------------------------

                                       pH  =  11.363      Charge balance
                                       pe  =   4.000      Adjusted to redox equilibrium
      Specific Conductance (µS/cm,  45°C)  = 122994
                          Density (g/cm³)  =   1.08720
                               Volume (L)  =   1.01670
                        Viscosity (mPa s)  =   1.04464
                        Activity of water  =   0.962
                 Ionic strength (mol/kgw)  =   2.970e+00
                       Mass of water (kg)  =   9.998e-01
                 Total alkalinity (eq/kg)  =   1.988e+00
                       Total CO2 (mol/kg)  =   9.942e-01
                         Temperature (°C)  =  45.00
                  Electrical balance (eq)  =  -5.024e-12
 Percent error, 100*(Cat-|An|)/(Cat+|An|)  =  -0.00
                               Iterations  =  20
                         Gamma iterations  =   4
                      Osmotic coefficient  =   0.71450
                         Density of water  =   0.99021
                                  Total H  = 1.110124e+02
                                  Total O  = 5.848822e+01

----------------------------Distribution of species----------------------------

                                                    MacInnes  MacInnes
                                MacInnes       Log       Log       Log    mole V
   Species          Molality    Activity  Molality  Activity     Gamma   cm³/mol

   OH-             1.233e-02   8.951e-03    -1.909    -2.048    -0.139      1.39
   H+              1.409e-11   4.336e-12   -10.851   -11.363    -0.512      0.00
   H2O             5.551e+01   9.622e-01     1.744    -0.017     0.000     18.19
C(4)          9.942e-01
   CO3-2           9.819e-01   6.139e-02    -0.008    -1.212    -1.204      4.86
   HCO3-           1.233e-02   4.280e-03    -1.909    -2.369    -0.459     29.15
   CO2             2.615e-08   3.667e-08    -7.582    -7.436     0.147     35.73
Na            1.988e+00
   Na+             1.988e+00   9.323e-01     0.299    -0.030    -0.329      0.95

------------------------------Saturation indices-------------------------------

  Phase               SI** log IAP   log K(318 K,   1 atm)

  CO2(g)           -5.77     -7.44   -1.67  CO2
  H2O(g)           -1.04     -0.02    1.03  H2O
  Nahcolite        -1.86    -12.61  -10.74  NaHCO3
  Natron           -0.62     -1.44   -0.82  Na2CO3:10H2O
  Trona            -2.53    -13.91  -11.38  Na3H(CO3)2:2H2O

**For a gas, SI = log10(fugacity). Fugacity = pressure * phi / 1 atm.
  For ideal gases, phi = 1.

------------------
End of simulation.
------------------

-------------------------------------
Reading input data for simulation 10.
-------------------------------------

	USE solution 1
	REACTION_TEMPERATURE
	 100.000000
	REACTION_PRESSURE
	 1.000000
	REACTION
	 Na2CO3 1
	0 0.199800 0.499400 0.994000
	USER_GRAPH
	 -headings 100.oC
	10 data 0,  0.868835, 3.760325, 6.790052,
	20 dim d(5)
	30 read d(1), d(2), d(3), d(4),
	40 if step_no = 1 then put(rho, 10)
	50 if step_no > 1 then Vmol = (1e3 + tot("C") * 105.9907) / (tot("C") * rho) - 1e3 / (tot("C") * get(10))
	60 if step_no = 1 then dif = 0 else dif = Vmol - d(step_no)
	62 if step_no = 1 then goto 90
	70 plot_xy tot("C"), d(step_no), line_w = 0, color = Blue
	80 plot_xy tot("C"), Vmol, symbol = None, color = Blue
	90 end
	END
-----------------------------------------
Beginning of batch-reaction calculations.
-----------------------------------------

Reaction step 1.

Using solution 1.	
Using temperature 1.	
Using pressure 1.	
Using reaction 1.	

Reaction 1.	

	  0.000e+00 moles of the following reaction have been added:

	                 Relative
	Reactant            moles

	Na2CO3               1.00000

	                 Relative
	Element             moles
	C                    1.00000
	Na                   2.00000
	O                    3.00000

-----------------------------Solution composition------------------------------

	Elements           Molality       Moles

	Pure water     

----------------------------Description of solution----------------------------

                                       pH  =   6.119      Charge balance
                                       pe  =   4.000      Adjusted to redox equilibrium
      Specific Conductance (µS/cm, 100°C)  = 0
                          Density (g/cm³)  =   0.95835
                               Volume (L)  =   1.04346
                        Viscosity (mPa s)  =   0.28158
                        Activity of water  =   1.000
                 Ionic strength (mol/kgw)  =   7.610e-07
                       Mass of water (kg)  =   1.000e+00
                 Total alkalinity (eq/kg)  =  -1.482e-21
                         Temperature (°C)  = 100.00
                  Electrical balance (eq)  =   1.482e-21
 Percent error, 100*(Cat-|An|)/(Cat+|An|)  =   0.00
                               Iterations  =   7
                         Gamma iterations  =   2
                      Osmotic coefficient  =   0.99960
                         Density of water  =   0.95835
                                  Total H  = 1.110124e+02
                                  Total O  = 5.550622e+01

----------------------------Distribution of species----------------------------

                                                    MacInnes  MacInnes
                                MacInnes       Log       Log       Log    mole V
   Species          Molality    Activity  Molality  Activity     Gamma   cm³/mol

   H+              7.610e-07   7.601e-07    -6.119    -6.119    -0.001      0.00
   OH-             7.610e-07   7.601e-07    -6.119    -6.119    -0.001     -5.96
   H2O             5.551e+01   1.000e+00     1.744    -0.000     0.000     18.80

------------------------------Saturation indices-------------------------------

  Phase               SI** log IAP   log K(373 K,   1 atm)

  H2O(g)           -0.00     -0.00    0.00  H2O

**For a gas, SI = log10(fugacity). Fugacity = pressure * phi / 1 atm.
  For ideal gases, phi = 1.

Reaction step 2.

Using solution 1.	
Using temperature 1.	
Using pressure 1.	
Using reaction 1.	

Reaction 1.	

	  1.998e-01 moles of the following reaction have been added:

	                 Relative
	Reactant            moles

	Na2CO3               1.00000

	                 Relative
	Element             moles
	C                    1.00000
	Na                   2.00000
	O                    3.00000

-----------------------------Solution composition------------------------------

	Elements           Molality       Moles

	C                 1.999e-01   1.998e-01
	Na                3.998e-01   3.996e-01

----------------------------Description of solution----------------------------

                                       pH  =  10.415      Charge balance
                                       pe  =   4.000      Adjusted to redox equilibrium
      Specific Conductance (µS/cm, 100°C)  = 82136
                          Density (g/cm³)  =   0.97860
                               Volume (L)  =   1.04351
                        Viscosity (mPa s)  =   0.31023
                        Activity of water  =   0.991
                 Ionic strength (mol/kgw)  =   5.764e-01
                       Mass of water (kg)  =   9.996e-01
                 Total alkalinity (eq/kg)  =   3.998e-01
                       Total CO2 (mol/kg)  =   1.999e-01
                         Temperature (°C)  = 100.00
                  Electrical balance (eq)  =  -2.219e-11
 Percent error, 100*(Cat-|An|)/(Cat+|An|)  =  -0.00
                               Iterations  =  16
                         Gamma iterations  =   3
                      Osmotic coefficient  =   0.78087
                         Density of water  =   0.95835
                                  Total H  = 1.110124e+02
                                  Total O  = 5.610562e+01

----------------------------Distribution of species----------------------------

                                                    MacInnes  MacInnes
                                MacInnes       Log       Log       Log    mole V
   Species          Molality    Activity  Molality  Activity     Gamma   cm³/mol

   OH-             2.321e-02   1.489e-02    -1.634    -1.827    -0.193     -3.80
   H+              8.633e-11   3.847e-11   -10.064   -10.415    -0.351      0.00
   H2O             5.551e+01   9.913e-01     1.744    -0.004     0.000     18.80
C(4)          1.999e-01
   CO3-2           1.767e-01   2.369e-02    -0.753    -1.625    -0.873     -2.74
   HCO3-           2.321e-02   1.334e-02    -1.634    -1.875    -0.240     26.31
   CO2             1.262e-06   1.350e-06    -5.899    -5.870     0.030     39.13
Na            3.998e-01
   Na+             3.998e-01   2.318e-01    -0.398    -0.635    -0.237      1.11

------------------------------Saturation indices-------------------------------

  Phase               SI** log IAP   log K(373 K,   1 atm)

  CO2(g)           -3.89     -5.87   -1.98  CO2
  H2O(g)           -0.01     -0.00    0.00  H2O
  Nahcolite        -1.93    -12.68  -10.74  NaHCO3
  Natron           -2.11     -2.93   -0.82  Na2CO3:10H2O
  Trona            -4.19    -15.58  -11.38  Na3H(CO3)2:2H2O

**For a gas, SI = log10(fugacity). Fugacity = pressure * phi / 1 atm.
  For ideal gases, phi = 1.

Reaction step 3.

Using solution 1.	
Using temperature 1.	
Using pressure 1.	
Using reaction 1.	

Reaction 1.	

	  4.994e-01 moles of the following reaction have been added:

	                 Relative
	Reactant            moles

	Na2CO3               1.00000

	                 Relative
	Element             moles
	C                    1.00000
	Na                   2.00000
	O                    3.00000

-----------------------------Solution composition------------------------------

	Elements           Molality       Moles

	C                 4.997e-01   4.994e-01
	Na                9.994e-01   9.988e-01

----------------------------Description of solution----------------------------

                                       pH  =  10.591      Charge balance
                                       pe  =   4.000      Adjusted to redox equilibrium
      Specific Conductance (µS/cm, 100°C)  = 164186
                          Density (g/cm³)  =   1.00773
                               Volume (L)  =   1.04485
                        Viscosity (mPa s)  =   0.36013
                        Activity of water  =   0.979
                 Ionic strength (mol/kgw)  =   1.465e+00
                       Mass of water (kg)  =   9.994e-01
                 Total alkalinity (eq/kg)  =   9.994e-01
                       Total CO2 (mol/kg)  =   4.997e-01
                         Temperature (°C)  = 100.00
                  Electrical balance (eq)  =  -1.461e-12
 Percent error, 100*(Cat-|An|)/(Cat+|An|)  =  -0.00
                               Iterations  =  21
                         Gamma iterations  =   4
                      Osmotic coefficient  =   0.76003
                         Density of water  =   0.95835
                                  Total H  = 1.110124e+02
                                  Total O  = 5.700442e+01

----------------------------Distribution of species----------------------------

                                                    MacInnes  MacInnes
                                MacInnes       Log       Log       Log    mole V
   Species          Molality    Activity  Molality  Activity     Gamma   cm³/mol

   OH-             3.416e-02   2.208e-02    -1.467    -1.656    -0.189     -1.93
   H+              7.887e-11   2.562e-11   -10.103   -10.591    -0.488      0.00
   H2O             5.551e+01   9.792e-01     1.744    -0.009     0.000     18.80
C(4)          4.997e-01
   CO3-2           4.656e-01   3.911e-02    -0.332    -1.408    -1.076     -0.44
   HCO3-           3.415e-02   1.467e-02    -1.467    -1.834    -0.367     27.42
   CO2             8.445e-07   1.001e-06    -6.073    -6.000     0.074     39.13
Na            9.994e-01
   Na+             9.994e-01   5.090e-01    -0.000    -0.293    -0.293      1.36

------------------------------Saturation indices-------------------------------

  Phase               SI** log IAP   log K(373 K,   1 atm)

  CO2(g)           -4.02     -6.00   -1.98  CO2
  H2O(g)           -0.01     -0.01    0.00  H2O
  Nahcolite        -1.55    -12.29  -10.74  NaHCO3
  Natron           -1.26     -2.09   -0.82  Na2CO3:10H2O
  Trona            -2.92    -14.31  -11.38  Na3H(CO3)2:2H2O

**For a gas, SI = log10(fugacity). Fugacity = pressure * phi / 1 atm.
  For ideal gases, phi = 1.

Reaction step 4.

Using solution 1.	
Using temperature 1.	
Using pressure 1.	
Using reaction 1.	

Reaction 1.	

	  9.940e-01 moles of the following reaction have been added:

	                 Relative
	Reactant            moles

	Na2CO3               1.00000

	                 Relative
	Element             moles
	C                    1.00000
	Na                   2.00000
	O                    3.00000

-----------------------------Solution composition------------------------------

	Elements           Molality       Moles

	C                 9.948e-01   9.940e-01
	Na                1.990e+00   1.988e+00

----------------------------Description of solution----------------------------

                                       pH  =  10.782      Charge balance
                                       pe  =   4.000      Adjusted to redox equilibrium
      Specific Conductance (µS/cm, 100°C)  = 257853
                          Density (g/cm³)  =   1.05384
                               Volume (L)  =   1.04888
                        Viscosity (mPa s)  =   0.46234
                        Activity of water  =   0.958
                 Ionic strength (mol/kgw)  =   2.938e+00
                       Mass of water (kg)  =   9.992e-01
                 Total alkalinity (eq/kg)  =   1.990e+00
                       Total CO2 (mol/kg)  =   9.948e-01
                         Temperature (°C)  = 100.00
                  Electrical balance (eq)  =  -9.393e-12
 Percent error, 100*(Cat-|An|)/(Cat+|An|)  =  -0.00
                               Iterations  =  21
                         Gamma iterations  =   4
                      Osmotic coefficient  =   0.78996
                         Density of water  =   0.95835
                                  Total H  = 1.110124e+02
                                  Total O  = 5.848822e+01

----------------------------Distribution of species----------------------------

                                                    MacInnes  MacInnes
                                MacInnes       Log       Log       Log    mole V
   Species          Molality    Activity  Molality  Activity     Gamma   cm³/mol

   OH-             4.599e-02   3.348e-02    -1.337    -1.475    -0.138      0.69
   H+              6.433e-11   1.653e-11   -10.192   -10.782    -0.590      0.00
   H2O             5.551e+01   9.578e-01     1.744    -0.019     0.000     18.80
C(4)          9.948e-01
   CO3-2           9.488e-01   5.920e-02    -0.023    -1.228    -1.205      1.88
   HCO3-           4.599e-02   1.433e-02    -1.337    -1.844    -0.507     28.61
   CO2             4.595e-07   6.445e-07    -6.338    -6.191     0.147     39.13
Na            1.990e+00
   Na+             1.990e+00   9.649e-01     0.299    -0.016    -0.314      1.58

------------------------------Saturation indices-------------------------------

  Phase               SI** log IAP   log K(373 K,   1 atm)

  CO2(g)           -4.21     -6.19   -1.98  CO2
  H2O(g)           -0.02     -0.02    0.00  H2O
  Nahcolite        -1.28    -12.03  -10.74  NaHCO3
  Natron           -0.62     -1.45   -0.82  Na2CO3:10H2O
  Trona            -1.94    -13.32  -11.38  Na3H(CO3)2:2H2O

**For a gas, SI = log10(fugacity). Fugacity = pressure * phi / 1 atm.
  For ideal gases, phi = 1.

------------------
End of simulation.
------------------

-------------------------------------
Reading input data for simulation 11.
-------------------------------------

