WARNING: Database file from DATABASE keyword is used; command line argument ignored.
   Input file: Vm_salt_65
  Output file: Vm_salt_65.out
Database file: ../database/Amm.dat

------------------
Reading data base.
------------------

	SOLUTION_MASTER_SPECIES
	SOLUTION_SPECIES
	PHASES
	GAS_BINARY_PARAMETERS
	EXCHANGE_MASTER_SPECIES
	EXCHANGE_SPECIES
	SURFACE_MASTER_SPECIES
	SURFACE_SPECIES
	MEAN_GAMMAS
	RATES
	END
------------------------------------
Reading input data for simulation 1.
------------------------------------

	DATABASE ../database/Amm.dat
	SELECTED_OUTPUT 101
	    file                 Vm_salt_65_101.sel
	USER_PUNCH 101
	    headings Mu SC
	    start
	10 PUNCH STR_F$(MU, 20, 12)
	20 PUNCH STR_F$(SC, 20, 10)
	    end
	SOLUTION 1
	 pH 7 charge
	END
-------------------------------------------
Beginning of initial solution calculations.
-------------------------------------------

Initial solution 1.	

-----------------------------Solution composition------------------------------

	Elements           Molality       Moles

	Pure water     

----------------------------Description of solution----------------------------

                                       pH  =   6.997      Charge balance
                                       pe  =   4.000    
      Specific Conductance (µS/cm,  25°C)  = 0
                          Density (g/cm³)  =   0.99704
                               Volume (L)  =   1.00297
                        Viscosity (mPa s)  =   0.89002
                        Activity of water  =   1.000
                 Ionic strength (mol/kgw)  =   1.006e-07
                       Mass of water (kg)  =   1.000e+00
                 Total alkalinity (eq/kg)  =   3.040e-17
                         Temperature (°C)  =  25.00
                  Electrical balance (eq)  =  -3.040e-17
 Percent error, 100*(Cat-|An|)/(Cat+|An|)  =  -0.00
                               Iterations  =   2
                                  Total H  = 1.110124e+02
                                  Total O  = 5.550622e+01

----------------------------Distribution of species----------------------------

                                               Log       Log       Log    mole V
   Species          Molality    Activity  Molality  Activity     Gamma   cm³/mol

   OH-             1.006e-07   1.006e-07    -6.997    -6.997    -0.000     -4.14
   H+              1.006e-07   1.006e-07    -6.997    -6.997    -0.000      0.00
   H2O             5.551e+01   1.000e+00     1.744    -0.000     0.000     18.07
H(0)          1.433e-25
   H2              7.166e-26   7.166e-26   -25.145   -25.145     0.000     14.99
O(0)          0.000e+00
   O2              0.000e+00   0.000e+00   -42.073   -42.073     0.000     30.40

------------------------------Saturation indices-------------------------------

  Phase               SI** log IAP   log K(298 K,   1 atm)

  H2(g)           -22.05    -25.14   -3.10  H2
  H2O(g)           -1.50     -0.00    1.50  H2O
  O2(g)           -39.18    -42.07   -2.89  O2

**For a gas, SI = log10(fugacity). Fugacity = pressure * phi / 1 atm.
  For ideal gases, phi = 1.

------------------
End of simulation.
------------------

------------------------------------
Reading input data for simulation 2.
------------------------------------

	USE solution 1
	REACTION_TEMPERATURE
	 65.000000
	REACTION_PRESSURE
	 0.000000
	REACTION
	 HCl 1
	0 1.203100 1.483900 1.618400 1.851100 2.095800 2.114800 2.195000 2.264800 2.395500 2.457900 2.764100 2.957400
	USER_GRAPH
	 -headings HCl
	-axis_titles "(Ionic Strength)^0.5 / (mol/kg H2O)^0.5" "molar volume / (cm3/mol)"
	-axis_scale x_axis 0 3
	-axis_scale y_axis 14 32
	10 data 0, 19.163098, 19.323853, 19.388113, 19.490484, 19.578167, 19.581691, 19.606290, 19.626931, 19.657965, 19.670590, 19.713658, 19.722742,
	20 dim d(13)
	30 read d(1), d(2), d(3), d(4), d(5), d(6), d(7), d(8), d(9), d(10), d(11), d(12), d(13),
	40 if step_no = 1 then put(rho, 10)
	50 if step_no > 1 then Vmol = (1e3 + tot("Cl") * 36.461) / (tot("Cl") * rho) - 1e3 / (tot("Cl") * get(10))
	60 if step_no = 1 then dif = 0 else dif = Vmol - d(step_no)
	62 if tot("Cl") > 10 or tc > 200 then goto 150
	100 if step_no = 1 then goto 150
	110 plot_xy mu^0.5, d(step_no), symbol = Triangle, line_w = 0, color = Blue
	120 plot_xy mu^0.5, Vmol, symbol = None, color = Blue, line_width = 2
	122 if step_no > 3 then goto 150
	130 V0 = 18.02
	134 if step_no = 2 then plot_xy 0, V0, symbol = None, color = Blue, line_width = 2 else                        plot_xy 4, V0 + DH_Av * 4 * 0.5, symbol = None, color = Blue, line_width = 1
	150 end
	END
-----------------------------------------
Beginning of batch-reaction calculations.
-----------------------------------------

Reaction step 1.

Using solution 1.	
Using temperature 1.	
Using pressure 1.	
Using reaction 1.	

Reaction 1.	

	  0.000e+00 moles of the following reaction have been added:

	                 Relative
	Reactant            moles

	HCl                  1.00000

	                 Relative
	Element             moles
	Cl                   1.00000
	H                    1.00000

-----------------------------Solution composition------------------------------

	Elements           Molality       Moles

	Pure water     

----------------------------Description of solution----------------------------

                                       pH  =   6.450      Charge balance
                                       pe  =   0.307      Adjusted to redox equilibrium
      Specific Conductance (µS/cm,  65°C)  = 0
                          Density (g/cm³)  =   0.98051
                               Volume (L)  =   1.01988
                        Viscosity (mPa s)  =   0.43288
                        Activity of water  =   1.000
                 Ionic strength (mol/kgw)  =   3.548e-07
                       Mass of water (kg)  =   1.000e+00
                 Total alkalinity (eq/kg)  =  -9.729e-16
                         Temperature (°C)  =  65.00
                           Pressure (atm)  =  0.25
                  Electrical balance (eq)  =   9.729e-16
 Percent error, 100*(Cat-|An|)/(Cat+|An|)  =   0.00
                               Iterations  =   8
                                  Total H  = 1.110124e+02
                                  Total O  = 5.550622e+01

----------------------------Distribution of species----------------------------

                                               Log       Log       Log    mole V
   Species          Molality    Activity  Molality  Activity     Gamma   cm³/mol

   H+              3.548e-07   3.545e-07    -6.450    -6.450    -0.000      0.00
   OH-             3.548e-07   3.545e-07    -6.450    -6.450    -0.000     -4.12
   H2O             5.551e+01   1.000e+00     1.744    -0.000     0.000     18.37
H(0)          3.042e-17
   H2              1.521e-17   1.521e-17   -16.818   -16.818     0.000     17.06
O(0)          0.000e+00
   O2              0.000e+00   0.000e+00   -47.261   -47.261     0.000     32.59

------------------------------Saturation indices-------------------------------

  Phase               SI** log IAP   log K(338 K,   0 atm)

  H2(g)           -13.69    -16.82   -3.13  H2
  H2O(g)           -0.61     -0.00    0.61  H2O
  O2(g)           -44.18    -47.26   -3.08  O2

**For a gas, SI = log10(fugacity). Fugacity = pressure * phi / 1 atm.
  For ideal gases, phi = 1.

Reaction step 2.

Using solution 1.	
Using temperature 1.	
Using pressure 1.	
Using reaction 1.	

Reaction 1.	

	  1.203e+00 moles of the following reaction have been added:

	                 Relative
	Reactant            moles

	HCl                  1.00000

	                 Relative
	Element             moles
	Cl                   1.00000
	H                    1.00000

-----------------------------Solution composition------------------------------

	Elements           Molality       Moles

	Cl                1.203e+00   1.203e+00

----------------------------Description of solution----------------------------

                                       pH  =   0.077      Charge balance
                                       pe  =   5.461      Adjusted to redox equilibrium
      Specific Conductance (µS/cm,  65°C)  = 529903
                          Density (g/cm³)  =   1.00072
                               Volume (L)  =   1.04311
                        Viscosity (mPa s)  =   0.48255
                        Activity of water  =   0.960
                 Ionic strength (mol/kgw)  =   1.155e+00
                       Mass of water (kg)  =   1.000e+00
                 Total alkalinity (eq/kg)  =  -1.203e+00
                         Temperature (°C)  =  65.00
                           Pressure (atm)  =  0.25
                  Electrical balance (eq)  =   2.553e-15
 Percent error, 100*(Cat-|An|)/(Cat+|An|)  =   0.00
                               Iterations  =  15
                                  Total H  = 1.122155e+02
                                  Total O  = 5.550622e+01

----------------------------Distribution of species----------------------------

                                               Log       Log       Log    mole V
   Species          Molality    Activity  Molality  Activity     Gamma   cm³/mol

   H+              1.155e+00   8.369e-01     0.062    -0.077    -0.140      0.00
   OH-             2.637e-13   1.442e-13   -12.579   -12.841    -0.262     -1.38
   H2O             5.551e+01   9.599e-01     1.744    -0.018     0.000     18.37
Cl            1.203e+00
   Cl-             1.155e+00   6.685e-01     0.062    -0.175    -0.237     19.19
   HCl             4.851e-02   1.504e-01    -1.314    -0.823     0.491     22.17
H(0)          6.309e-15
   H2              3.155e-15   4.170e-15   -14.501   -14.380     0.121     17.06
O(0)          0.000e+00
   O2              0.000e+00   0.000e+00   -52.288   -52.173     0.115     32.59

------------------------------Saturation indices-------------------------------

  Phase               SI** log IAP   log K(338 K,   0 atm)

  H2(g)           -11.25    -14.38   -3.13  H2
  H2O(g)           -0.63     -0.02    0.61  H2O
  O2(g)           -49.09    -52.17   -3.08  O2

**For a gas, SI = log10(fugacity). Fugacity = pressure * phi / 1 atm.
  For ideal gases, phi = 1.

Reaction step 3.

Using solution 1.	
Using temperature 1.	
Using pressure 1.	
Using reaction 1.	

Reaction 1.	

	  1.484e+00 moles of the following reaction have been added:

	                 Relative
	Reactant            moles

	HCl                  1.00000

	                 Relative
	Element             moles
	Cl                   1.00000
	H                    1.00000

-----------------------------Solution composition------------------------------

	Elements           Molality       Moles

	Cl                1.484e+00   1.484e+00

----------------------------Description of solution----------------------------

                                       pH  =  -0.012      Charge balance
                                       pe  =   5.563      Adjusted to redox equilibrium
      Specific Conductance (µS/cm,  65°C)  = 617454
                          Density (g/cm³)  =   1.00515
                               Volume (L)  =   1.04871
                        Viscosity (mPa s)  =   0.49352
                        Activity of water  =   0.950
                 Ionic strength (mol/kgw)  =   1.428e+00
                       Mass of water (kg)  =   1.000e+00
                 Total alkalinity (eq/kg)  =  -1.484e+00
                         Temperature (°C)  =  65.00
                           Pressure (atm)  =  0.25
                  Electrical balance (eq)  =  -9.075e-09
 Percent error, 100*(Cat-|An|)/(Cat+|An|)  =  -0.00
                               Iterations  =  11
                                  Total H  = 1.124963e+02
                                  Total O  = 5.550622e+01

----------------------------Distribution of species----------------------------

                                               Log       Log       Log    mole V
   Species          Molality    Activity  Molality  Activity     Gamma   cm³/mol

   H+              1.428e+00   1.027e+00     0.155     0.012    -0.143      0.00
   OH-             2.188e-13   1.163e-13   -12.660   -12.935    -0.275     -0.91
   H2O             5.551e+01   9.505e-01     1.744    -0.022     0.000     18.37
Cl            1.484e+00
   Cl-             1.428e+00   8.137e-01     0.155    -0.090    -0.244     19.32
   HCl             5.541e-02   2.247e-01    -1.256    -0.648     0.608     22.17
H(0)          5.575e-15
   H2              2.787e-15   3.937e-15   -14.555   -14.405     0.150     17.06
O(0)          0.000e+00
   O2              0.000e+00   0.000e+00   -52.274   -52.131     0.143     32.59

------------------------------Saturation indices-------------------------------

  Phase               SI** log IAP   log K(338 K,   0 atm)

  H2(g)           -11.28    -14.40   -3.13  H2
  H2O(g)           -0.63     -0.02    0.61  H2O
  O2(g)           -49.05    -52.13   -3.08  O2

**For a gas, SI = log10(fugacity). Fugacity = pressure * phi / 1 atm.
  For ideal gases, phi = 1.

Reaction step 4.

Using solution 1.	
Using temperature 1.	
Using pressure 1.	
Using reaction 1.	

Reaction 1.	

	  1.618e+00 moles of the following reaction have been added:

	                 Relative
	Reactant            moles

	HCl                  1.00000

	                 Relative
	Element             moles
	Cl                   1.00000
	H                    1.00000

-----------------------------Solution composition------------------------------

	Elements           Molality       Moles

	Cl                1.618e+00   1.618e+00

----------------------------Description of solution----------------------------

                                       pH  =  -0.049      Charge balance
                                       pe  =  14.965      Adjusted to redox equilibrium
      Specific Conductance (µS/cm,  65°C)  = 655566
                          Density (g/cm³)  =   1.00724
                               Volume (L)  =   1.05140
                        Viscosity (mPa s)  =   0.49864
                        Activity of water  =   0.946
                 Ionic strength (mol/kgw)  =   1.561e+00
                       Mass of water (kg)  =   1.000e+00
                 Total alkalinity (eq/kg)  =  -1.618e+00
                         Temperature (°C)  =  65.00
                           Pressure (atm)  =  0.25
                  Electrical balance (eq)  =  -4.768e-11
 Percent error, 100*(Cat-|An|)/(Cat+|An|)  =  -0.00
                               Iterations  =  13
                                  Total H  = 1.126308e+02
                                  Total O  = 5.550622e+01

----------------------------Distribution of species----------------------------

                                               Log       Log       Log    mole V
   Species          Molality    Activity  Molality  Activity     Gamma   cm³/mol

   H+              1.561e+00   1.119e+00     0.193     0.049    -0.145      0.00
   OH-             2.022e-13   1.062e-13   -12.694   -12.974    -0.280     -0.69
   H2O             5.551e+01   9.460e-01     1.744    -0.024     0.000     18.37
Cl            1.618e+00
   Cl-             1.561e+00   8.838e-01     0.193    -0.054    -0.247     19.38
   HCl             5.759e-02   2.658e-01    -1.240    -0.575     0.664     22.17
H(0)          1.006e-33
   H2              5.030e-34   7.336e-34   -33.298   -33.135     0.164     17.06
O(0)          2.945e-15
   O2              1.473e-15   2.109e-15   -14.832   -14.676     0.156     32.59

------------------------------Saturation indices-------------------------------

  Phase               SI** log IAP   log K(338 K,   0 atm)

  H2(g)           -30.01    -33.13   -3.13  H2
  H2O(g)           -0.63     -0.02    0.61  H2O
  O2(g)           -11.60    -14.68   -3.08  O2

**For a gas, SI = log10(fugacity). Fugacity = pressure * phi / 1 atm.
  For ideal gases, phi = 1.

Reaction step 5.

Using solution 1.	
Using temperature 1.	
Using pressure 1.	
Using reaction 1.	

Reaction 1.	

	  1.851e+00 moles of the following reaction have been added:

	                 Relative
	Reactant            moles

	HCl                  1.00000

	                 Relative
	Element             moles
	Cl                   1.00000
	H                    1.00000

-----------------------------Solution composition------------------------------

	Elements           Molality       Moles

	Cl                1.851e+00   1.851e+00

----------------------------Description of solution----------------------------

                                       pH  =  -0.107      Charge balance
                                       pe  =   5.809      Adjusted to redox equilibrium
      Specific Conductance (µS/cm,  65°C)  = 716074
                          Density (g/cm³)  =   1.01082
                               Volume (L)  =   1.05607
                        Viscosity (mPa s)  =   0.50730
                        Activity of water  =   0.938
                 Ionic strength (mol/kgw)  =   1.791e+00
                       Mass of water (kg)  =   1.000e+00
                 Total alkalinity (eq/kg)  =  -1.851e+00
                         Temperature (°C)  =  65.00
                           Pressure (atm)  =  0.25
                  Electrical balance (eq)  =   5.105e-13
 Percent error, 100*(Cat-|An|)/(Cat+|An|)  =   0.00
                               Iterations  =  12
                                  Total H  = 1.128635e+02
                                  Total O  = 5.550622e+01

----------------------------Distribution of species----------------------------

                                               Log       Log       Log    mole V
   Species          Molality    Activity  Molality  Activity     Gamma   cm³/mol

   H+              1.791e+00   1.278e+00     0.253     0.107    -0.147      0.00
   OH-             1.787e-13   9.223e-14   -12.748   -13.035    -0.287     -0.32
   H2O             5.551e+01   9.381e-01     1.744    -0.028     0.000     18.37
Cl            1.851e+00
   Cl-             1.791e+00   1.006e+00     0.253     0.003    -0.250     19.47
   HCl             5.975e-02   3.457e-01    -1.224    -0.461     0.762     22.17
H(0)          2.540e-15
   H2              1.270e-15   1.959e-15   -14.896   -14.708     0.188     17.06
O(0)          0.000e+00
   O2              0.000e+00   0.000e+00   -51.715   -51.536     0.179     32.59

------------------------------Saturation indices-------------------------------

  Phase               SI** log IAP   log K(338 K,   0 atm)

  H2(g)           -11.58    -14.71   -3.13  H2
  H2O(g)           -0.64     -0.03    0.61  H2O
  O2(g)           -48.46    -51.54   -3.08  O2

**For a gas, SI = log10(fugacity). Fugacity = pressure * phi / 1 atm.
  For ideal gases, phi = 1.

Reaction step 6.

Using solution 1.	
Using temperature 1.	
Using pressure 1.	
Using reaction 1.	

Reaction 1.	

	  2.096e+00 moles of the following reaction have been added:

	                 Relative
	Reactant            moles

	HCl                  1.00000

	                 Relative
	Element             moles
	Cl                   1.00000
	H                    1.00000

-----------------------------Solution composition------------------------------

	Elements           Molality       Moles

	Cl                2.096e+00   2.096e+00

----------------------------Description of solution----------------------------

                                       pH  =  -0.160      Charge balance
                                       pe  =  15.046      Adjusted to redox equilibrium
      Specific Conductance (µS/cm,  65°C)  = 772785
                          Density (g/cm³)  =   1.01452
                               Volume (L)  =   1.06101
                        Viscosity (mPa s)  =   0.51619
                        Activity of water  =   0.930
                 Ionic strength (mol/kgw)  =   2.036e+00
                       Mass of water (kg)  =   1.000e+00
                 Total alkalinity (eq/kg)  =  -2.096e+00
                         Temperature (°C)  =  65.00
                           Pressure (atm)  =  0.25
                  Electrical balance (eq)  =  -9.273e-11
 Percent error, 100*(Cat-|An|)/(Cat+|An|)  =  -0.00
                               Iterations  =  13
                                  Total H  = 1.131082e+02
                                  Total O  = 5.550622e+01

----------------------------Distribution of species----------------------------

                                               Log       Log       Log    mole V
   Species          Molality    Activity  Molality  Activity     Gamma   cm³/mol

   H+              2.036e+00   1.446e+00     0.309     0.160    -0.148      0.00
   OH-             1.591e-13   8.078e-14   -12.798   -13.093    -0.294      0.07
   H2O             5.551e+01   9.298e-01     1.744    -0.032     0.000     18.37
Cl            2.096e+00
   Cl-             2.036e+00   1.137e+00     0.309     0.056    -0.253     19.55
   HCl             6.011e-02   4.419e-01    -1.221    -0.355     0.866     22.17
H(0)          1.030e-33
   H2              5.149e-34   8.424e-34   -33.288   -33.075     0.214     17.06
O(0)          1.934e-15
   O2              9.671e-16   1.545e-15   -15.015   -14.811     0.204     32.59

------------------------------Saturation indices-------------------------------

  Phase               SI** log IAP   log K(338 K,   0 atm)

  H2(g)           -29.95    -33.07   -3.13  H2
  H2O(g)           -0.64     -0.03    0.61  H2O
  O2(g)           -11.73    -14.81   -3.08  O2

**For a gas, SI = log10(fugacity). Fugacity = pressure * phi / 1 atm.
  For ideal gases, phi = 1.

Reaction step 7.

Using solution 1.	
Using temperature 1.	
Using pressure 1.	
Using reaction 1.	

Reaction 1.	

	  2.115e+00 moles of the following reaction have been added:

	                 Relative
	Reactant            moles

	HCl                  1.00000

	                 Relative
	Element             moles
	Cl                   1.00000
	H                    1.00000

-----------------------------Solution composition------------------------------

	Elements           Molality       Moles

	Cl                2.115e+00   2.115e+00

----------------------------Description of solution----------------------------

                                       pH  =  -0.164      Charge balance
                                       pe  =   5.848      Adjusted to redox equilibrium
      Specific Conductance (µS/cm,  65°C)  = 776909
                          Density (g/cm³)  =   1.01480
                               Volume (L)  =   1.06140
                        Viscosity (mPa s)  =   0.51687
                        Activity of water  =   0.929
                 Ionic strength (mol/kgw)  =   2.055e+00
                       Mass of water (kg)  =   1.000e+00
                 Total alkalinity (eq/kg)  =  -2.115e+00
                         Temperature (°C)  =  65.00
                           Pressure (atm)  =  0.25
                  Electrical balance (eq)  =   2.897e-12
 Percent error, 100*(Cat-|An|)/(Cat+|An|)  =   0.00
                               Iterations  =  12
                                  Total H  = 1.131272e+02
                                  Total O  = 5.550622e+01

----------------------------Distribution of species----------------------------

                                               Log       Log       Log    mole V
   Species          Molality    Activity  Molality  Activity     Gamma   cm³/mol

   H+              2.055e+00   1.460e+00     0.313     0.164    -0.149      0.00
   OH-             1.578e-13   8.000e-14   -12.802   -13.097    -0.295      0.10
   H2O             5.551e+01   9.291e-01     1.744    -0.032     0.000     18.37
Cl            2.115e+00
   Cl-             2.055e+00   1.147e+00     0.313     0.059    -0.253     19.56
   HCl             6.007e-02   4.499e-01    -1.221    -0.347     0.874     22.17
H(0)          2.604e-15
   H2              1.302e-15   2.140e-15   -14.885   -14.670     0.216     17.06
O(0)          0.000e+00
   O2              0.000e+00   0.000e+00   -51.827   -51.621     0.205     32.59

------------------------------Saturation indices-------------------------------

  Phase               SI** log IAP   log K(338 K,   0 atm)

  H2(g)           -11.54    -14.67   -3.13  H2
  H2O(g)           -0.64     -0.03    0.61  H2O
  O2(g)           -48.54    -51.62   -3.08  O2

**For a gas, SI = log10(fugacity). Fugacity = pressure * phi / 1 atm.
  For ideal gases, phi = 1.

Reaction step 8.

Using solution 1.	
Using temperature 1.	
Using pressure 1.	
Using reaction 1.	

Reaction 1.	

	  2.195e+00 moles of the following reaction have been added:

	                 Relative
	Reactant            moles

	HCl                  1.00000

	                 Relative
	Element             moles
	Cl                   1.00000
	H                    1.00000

-----------------------------Solution composition------------------------------

	Elements           Molality       Moles

	Cl                2.195e+00   2.195e+00

----------------------------Description of solution----------------------------

                                       pH  =  -0.180      Charge balance
                                       pe  =  15.134      Adjusted to redox equilibrium
      Specific Conductance (µS/cm,  65°C)  = 793888
                          Density (g/cm³)  =   1.01600
                               Volume (L)  =   1.06302
                        Viscosity (mPa s)  =   0.51974
                        Activity of water  =   0.926
                 Ionic strength (mol/kgw)  =   2.135e+00
                       Mass of water (kg)  =   1.000e+00
                 Total alkalinity (eq/kg)  =  -2.195e+00
                         Temperature (°C)  =  65.00
                           Pressure (atm)  =  0.25
                  Electrical balance (eq)  =   7.889e-09
 Percent error, 100*(Cat-|An|)/(Cat+|An|)  =   0.00
                               Iterations  =  13
                                  Total H  = 1.132074e+02
                                  Total O  = 5.550622e+01

----------------------------Distribution of species----------------------------

                                               Log       Log       Log    mole V
   Species          Molality    Activity  Molality  Activity     Gamma   cm³/mol

   H+              2.135e+00   1.515e+00     0.329     0.180    -0.149      0.00
   OH-             1.523e-13   7.685e-14   -12.817   -13.114    -0.297      0.23
   H2O             5.551e+01   9.264e-01     1.744    -0.033     0.000     18.37
Cl            2.195e+00
   Cl-             2.135e+00   1.190e+00     0.329     0.076    -0.254     19.59
   HCl             5.978e-02   4.845e-01    -1.223    -0.315     0.909     22.17
H(0)          7.373e-34
   H2              3.686e-34   6.177e-34   -33.433   -33.209     0.224     17.06
O(0)          3.489e-15
   O2              1.745e-15   2.853e-15   -14.758   -14.545     0.214     32.59

------------------------------Saturation indices-------------------------------

  Phase               SI** log IAP   log K(338 K,   0 atm)

  H2(g)           -30.08    -33.21   -3.13  H2
  H2O(g)           -0.64     -0.03    0.61  H2O
  O2(g)           -11.47    -14.54   -3.08  O2

**For a gas, SI = log10(fugacity). Fugacity = pressure * phi / 1 atm.
  For ideal gases, phi = 1.

Reaction step 9.

Using solution 1.	
Using temperature 1.	
Using pressure 1.	
Using reaction 1.	

Reaction 1.	

	  2.265e+00 moles of the following reaction have been added:

	                 Relative
	Reactant            moles

	HCl                  1.00000

	                 Relative
	Element             moles
	Cl                   1.00000
	H                    1.00000

-----------------------------Solution composition------------------------------

	Elements           Molality       Moles

	Cl                2.265e+00   2.265e+00

----------------------------Description of solution----------------------------

                                       pH  =  -0.194      Charge balance
                                       pe  =  15.141      Adjusted to redox equilibrium
      Specific Conductance (µS/cm,  65°C)  = 808115
                          Density (g/cm³)  =   1.01704
                               Volume (L)  =   1.06444
                        Viscosity (mPa s)  =   0.52221
                        Activity of water  =   0.924
                 Ionic strength (mol/kgw)  =   2.205e+00
                       Mass of water (kg)  =   1.000e+00
                 Total alkalinity (eq/kg)  =  -2.265e+00
                         Temperature (°C)  =  65.00
                           Pressure (atm)  =  0.25
                  Electrical balance (eq)  =   5.919e-09
 Percent error, 100*(Cat-|An|)/(Cat+|An|)  =   0.00
                               Iterations  =  13
                                  Total H  = 1.132772e+02
                                  Total O  = 5.550622e+01

----------------------------Distribution of species----------------------------

                                               Log       Log       Log    mole V
   Species          Molality    Activity  Molality  Activity     Gamma   cm³/mol

   H+              2.205e+00   1.563e+00     0.343     0.194    -0.149      0.00
   OH-             1.478e-13   7.429e-14   -12.830   -13.129    -0.299      0.34
   H2O             5.551e+01   9.240e-01     1.744    -0.034     0.000     18.37
Cl            2.265e+00
   Cl-             2.205e+00   1.228e+00     0.343     0.089    -0.254     19.61
   HCl             5.941e-02   5.158e-01    -1.226    -0.288     0.939     22.17
H(0)          7.460e-34
   H2              3.730e-34   6.357e-34   -33.428   -33.197     0.232     17.06
O(0)          3.225e-15
   O2              1.613e-15   2.680e-15   -14.792   -14.572     0.221     32.59

------------------------------Saturation indices-------------------------------

  Phase               SI** log IAP   log K(338 K,   0 atm)

  H2(g)           -30.07    -33.20   -3.13  H2
  H2O(g)           -0.64     -0.03    0.61  H2O
  O2(g)           -11.49    -14.57   -3.08  O2

**For a gas, SI = log10(fugacity). Fugacity = pressure * phi / 1 atm.
  For ideal gases, phi = 1.

Reaction step 10.

Using solution 1.	
Using temperature 1.	
Using pressure 1.	
Using reaction 1.	

Reaction 1.	

	  2.396e+00 moles of the following reaction have been added:

	                 Relative
	Reactant            moles

	HCl                  1.00000

	                 Relative
	Element             moles
	Cl                   1.00000
	H                    1.00000

-----------------------------Solution composition------------------------------

	Elements           Molality       Moles

	Cl                2.395e+00   2.396e+00

----------------------------Description of solution----------------------------

                                       pH  =  -0.218      Charge balance
                                       pe  =  15.043      Adjusted to redox equilibrium
      Specific Conductance (µS/cm,  65°C)  = 833426
                          Density (g/cm³)  =   1.01898
                               Volume (L)  =   1.06709
                        Viscosity (mPa s)  =   0.52682
                        Activity of water  =   0.920
                 Ionic strength (mol/kgw)  =   2.337e+00
                       Mass of water (kg)  =   1.000e+00
                 Total alkalinity (eq/kg)  =  -2.395e+00
                         Temperature (°C)  =  65.00
                           Pressure (atm)  =  0.25
                  Electrical balance (eq)  =  -1.445e-13
 Percent error, 100*(Cat-|An|)/(Cat+|An|)  =  -0.00
                               Iterations  =  15
                                  Total H  = 1.134079e+02
                                  Total O  = 5.550622e+01

----------------------------Distribution of species----------------------------

                                               Log       Log       Log    mole V
   Species          Molality    Activity  Molality  Activity     Gamma   cm³/mol

   H+              2.337e+00   1.653e+00     0.369     0.218    -0.150      0.00
   OH-             1.401e-13   6.989e-14   -12.854   -13.156    -0.302      0.54
   H2O             5.551e+01   9.195e-01     1.744    -0.036     0.000     18.37
Cl            2.395e+00
   Cl-             2.337e+00   1.299e+00     0.369     0.114    -0.255     19.65
   HCl             5.843e-02   5.772e-01    -1.233    -0.239     0.995     22.17
H(0)          1.267e-33
   H2              6.337e-34   1.115e-33   -33.198   -32.953     0.245     17.06
O(0)          1.007e-15
   O2              5.037e-16   8.627e-16   -15.298   -15.064     0.234     32.59

------------------------------Saturation indices-------------------------------

  Phase               SI** log IAP   log K(338 K,   0 atm)

  H2(g)           -29.83    -32.95   -3.13  H2
  H2O(g)           -0.65     -0.04    0.61  H2O
  O2(g)           -11.99    -15.06   -3.08  O2

**For a gas, SI = log10(fugacity). Fugacity = pressure * phi / 1 atm.
  For ideal gases, phi = 1.

Reaction step 11.

Using solution 1.	
Using temperature 1.	
Using pressure 1.	
Using reaction 1.	

Reaction 1.	

	  2.458e+00 moles of the following reaction have been added:

	                 Relative
	Reactant            moles

	HCl                  1.00000

	                 Relative
	Element             moles
	Cl                   1.00000
	H                    1.00000

-----------------------------Solution composition------------------------------

	Elements           Molality       Moles

	Cl                2.458e+00   2.458e+00

----------------------------Description of solution----------------------------

                                       pH  =  -0.230      Charge balance
                                       pe  =  15.145      Adjusted to redox equilibrium
      Specific Conductance (µS/cm,  65°C)  = 844917
                          Density (g/cm³)  =   1.01990
                               Volume (L)  =   1.06836
                        Viscosity (mPa s)  =   0.52900
                        Activity of water  =   0.917
                 Ionic strength (mol/kgw)  =   2.400e+00
                       Mass of water (kg)  =   1.000e+00
                 Total alkalinity (eq/kg)  =  -2.458e+00
                         Temperature (°C)  =  65.00
                           Pressure (atm)  =  0.25
                  Electrical balance (eq)  =   1.342e-13
 Percent error, 100*(Cat-|An|)/(Cat+|An|)  =   0.00
                               Iterations  =  14
                                  Total H  = 1.134703e+02
                                  Total O  = 5.550622e+01

----------------------------Distribution of species----------------------------

                                               Log       Log       Log    mole V
   Species          Molality    Activity  Molality  Activity     Gamma   cm³/mol

   H+              2.400e+00   1.697e+00     0.380     0.230    -0.151      0.00
   OH-             1.366e-13   6.796e-14   -12.864   -13.168    -0.303      0.64
   H2O             5.551e+01   9.174e-01     1.744    -0.037     0.000     18.37
Cl            2.458e+00
   Cl-             2.400e+00   1.333e+00     0.380     0.125    -0.255     19.67
   HCl             5.785e-02   6.078e-01    -1.238    -0.216     1.021     22.17
H(0)          8.223e-34
   H2              4.112e-34   7.346e-34   -33.386   -33.134     0.252     17.06
O(0)          2.277e-15
   O2              1.139e-15   1.979e-15   -14.944   -14.704     0.240     32.59

------------------------------Saturation indices-------------------------------

  Phase               SI** log IAP   log K(338 K,   0 atm)

  H2(g)           -30.01    -33.13   -3.13  H2
  H2O(g)           -0.65     -0.04    0.61  H2O
  O2(g)           -11.63    -14.70   -3.08  O2

**For a gas, SI = log10(fugacity). Fugacity = pressure * phi / 1 atm.
  For ideal gases, phi = 1.

Reaction step 12.

Using solution 1.	
Using temperature 1.	
Using pressure 1.	
Using reaction 1.	

Reaction 1.	

	  2.764e+00 moles of the following reaction have been added:

	                 Relative
	Reactant            moles

	HCl                  1.00000

	                 Relative
	Element             moles
	Cl                   1.00000
	H                    1.00000

-----------------------------Solution composition------------------------------

	Elements           Molality       Moles

	Cl                2.764e+00   2.764e+00

----------------------------Description of solution----------------------------

                                       pH  =  -0.281      Charge balance
                                       pe  =  15.046      Adjusted to redox equilibrium
      Specific Conductance (µS/cm,  65°C)  = 896088
                          Density (g/cm³)  =   1.02435
                               Volume (L)  =   1.07461
                        Viscosity (mPa s)  =   0.53958
                        Activity of water  =   0.907
                 Ionic strength (mol/kgw)  =   2.710e+00
                       Mass of water (kg)  =   1.000e+00
                 Total alkalinity (eq/kg)  =  -2.764e+00
                         Temperature (°C)  =  65.00
                           Pressure (atm)  =  0.25
                  Electrical balance (eq)  =  -1.885e-14
 Percent error, 100*(Cat-|An|)/(Cat+|An|)  =  -0.00
                               Iterations  =  15
                                  Total H  = 1.137765e+02
                                  Total O  = 5.550622e+01

----------------------------Distribution of species----------------------------

                                               Log       Log       Log    mole V
   Species          Molality    Activity  Molality  Activity     Gamma   cm³/mol

   H+              2.710e+00   1.909e+00     0.433     0.281    -0.152      0.00
   OH-             1.219e-13   5.971e-14   -12.914   -13.224    -0.310      1.11
   H2O             5.551e+01   9.069e-01     1.744    -0.042     0.000     18.37
Cl            2.764e+00
   Cl-             2.710e+00   1.502e+00     0.433     0.177    -0.256     19.76
   HCl             5.412e-02   7.705e-01    -1.267    -0.113     1.153     22.17
H(0)          1.524e-33
   H2              7.621e-34   1.467e-33   -33.118   -32.833     0.285     17.06
O(0)          5.192e-16
   O2              2.596e-16   4.845e-16   -15.586   -15.315     0.271     32.59

------------------------------Saturation indices-------------------------------

  Phase               SI** log IAP   log K(338 K,   0 atm)

  H2(g)           -29.71    -32.83   -3.13  H2
  H2O(g)           -0.65     -0.04    0.61  H2O
  O2(g)           -12.24    -15.31   -3.08  O2

**For a gas, SI = log10(fugacity). Fugacity = pressure * phi / 1 atm.
  For ideal gases, phi = 1.

Reaction step 13.

Using solution 1.	
Using temperature 1.	
Using pressure 1.	
Using reaction 1.	

Reaction 1.	

	  2.957e+00 moles of the following reaction have been added:

	                 Relative
	Reactant            moles

	HCl                  1.00000

	                 Relative
	Element             moles
	Cl                   1.00000
	H                    1.00000

-----------------------------Solution composition------------------------------

	Elements           Molality       Moles

	Cl                2.957e+00   2.957e+00

----------------------------Description of solution----------------------------

                                       pH  =  -0.310      Charge balance
                                       pe  =   5.720      Adjusted to redox equilibrium
      Specific Conductance (µS/cm,  65°C)  = 924230
                          Density (g/cm³)  =   1.02712
                               Volume (L)  =   1.07858
                        Viscosity (mPa s)  =   0.54618
                        Activity of water  =   0.900
                 Ionic strength (mol/kgw)  =   2.906e+00
                       Mass of water (kg)  =   1.000e+00
                 Total alkalinity (eq/kg)  =  -2.957e+00
                         Temperature (°C)  =  65.00
                           Pressure (atm)  =  0.25
                  Electrical balance (eq)  =   3.163e-13
 Percent error, 100*(Cat-|An|)/(Cat+|An|)  =   0.00
                               Iterations  =  13
                                  Total H  = 1.139698e+02
                                  Total O  = 5.550622e+01

----------------------------Distribution of species----------------------------

                                               Log       Log       Log    mole V
   Species          Molality    Activity  Molality  Activity     Gamma   cm³/mol

   H+              2.906e+00   2.043e+00     0.463     0.310    -0.153      0.00
   OH-             1.140e-13   5.539e-14   -12.943   -13.257    -0.314      1.40
   H2O             5.551e+01   9.003e-01     1.744    -0.046     0.000     18.37
Cl            2.957e+00
   Cl-             2.906e+00   1.610e+00     0.463     0.207    -0.257     19.81
   HCl             5.123e-02   8.839e-01    -1.290    -0.054     1.237     22.17
H(0)          7.468e-15
   H2              3.734e-15   7.539e-15   -14.428   -14.123     0.305     17.06
O(0)          0.000e+00
   O2              0.000e+00   0.000e+00   -53.033   -52.743     0.291     32.59

------------------------------Saturation indices-------------------------------

  Phase               SI** log IAP   log K(338 K,   0 atm)

  H2(g)           -11.00    -14.12   -3.13  H2
  H2O(g)           -0.66     -0.05    0.61  H2O
  O2(g)           -49.66    -52.74   -3.08  O2

**For a gas, SI = log10(fugacity). Fugacity = pressure * phi / 1 atm.
  For ideal gases, phi = 1.

------------------
End of simulation.
------------------

------------------------------------
Reading input data for simulation 3.
------------------------------------

	USE solution 1
	REACTION_TEMPERATURE
	 65.000000
	REACTION_PRESSURE
	 0.000000
	REACTION
	 NaCl 1
	0 0.100000 0.216680 0.256170 0.349370 0.518980 0.527510 0.625830 0.779010 0.875250 1.000000 1.103670 1.225410 1.556330 1.609170 2.000000 2.232540 2.500000 2.547010 3.035630 3.989210 4.266790 4.565810 5.557430 5.715770 5.913880
	USER_GRAPH
	-headings NaCl
	10 data 0, 18.495315, 18.721759, 19.165135, 19.108003, 19.224043, 19.387386, 19.353910, 19.604876, 19.665787, 20.101217, 19.918429, 20.026973, 20.211263, 20.253637, 20.621179, 20.668477, 20.839475, 20.873152, 21.102330, 21.500523, 21.609698, 21.734248, 22.074488, 22.120537, 22.205722,
	20 dim d(26)
	30 read d(1), d(2), d(3), d(4), d(5), d(6), d(7), d(8), d(9), d(10), d(11), d(12), d(13), d(14), d(15), d(16), d(17), d(18), d(19), d(20), d(21), d(22), d(23), d(24), d(25), d(26),
	40 if step_no = 1 then put(rho, 10)
	50 if step_no > 1 then Vmol = (1e3 + tot("Cl") * 58.4428) / (tot("Cl") * rho) - 1e3 / (tot("Cl") * get(10))
	60 if step_no = 1 then dif = 0 else dif = Vmol - d(step_no)
	62 if step_no = 1 then goto 150
	70 plot_xy mu^0.5, d(step_no), line_w = 0, color = Red #aph_x tot("Na") # dif, str$(tc), str$(pressure), str$(step_no + get(1))
	80 plot_xy mu^0.5, Vmol, symbol = None, color = Red, line_width = 2 #step_no = 264 then put(step_no + get(1), 1)
	122 if step_no > 3 then goto 150
	130 Van = 18.02
	 131 Vcat = 16.7 - 18.02
	134 if step_no = 2 then plot_xy 0, Van + Vcat, symbol = None, color = Red, line_width = 1 else                        plot_xy 4, Van + Vcat + DH_Av * 4, symbol = None, color = Red, line_width = 1
	150 end
	END
-----------------------------------------
Beginning of batch-reaction calculations.
-----------------------------------------

Reaction step 1.

Using solution 1.	
Using temperature 1.	
Using pressure 1.	
Using reaction 1.	

Reaction 1.	

	  0.000e+00 moles of the following reaction have been added:

	                 Relative
	Reactant            moles

	NaCl                 1.00000

	                 Relative
	Element             moles
	Cl                   1.00000
	Na                   1.00000

-----------------------------Solution composition------------------------------

	Elements           Molality       Moles

	Pure water     

----------------------------Description of solution----------------------------

                                       pH  =   6.450      Charge balance
                                       pe  =   0.307      Adjusted to redox equilibrium
      Specific Conductance (µS/cm,  65°C)  = 0
                          Density (g/cm³)  =   0.98051
                               Volume (L)  =   1.01988
                        Viscosity (mPa s)  =   0.43288
                        Activity of water  =   1.000
                 Ionic strength (mol/kgw)  =   3.548e-07
                       Mass of water (kg)  =   1.000e+00
                 Total alkalinity (eq/kg)  =  -9.729e-16
                         Temperature (°C)  =  65.00
                           Pressure (atm)  =  0.25
                  Electrical balance (eq)  =   9.729e-16
 Percent error, 100*(Cat-|An|)/(Cat+|An|)  =   0.00
                               Iterations  =   8
                                  Total H  = 1.110124e+02
                                  Total O  = 5.550622e+01

----------------------------Distribution of species----------------------------

                                               Log       Log       Log    mole V
   Species          Molality    Activity  Molality  Activity     Gamma   cm³/mol

   H+              3.548e-07   3.545e-07    -6.450    -6.450    -0.000      0.00
   OH-             3.548e-07   3.545e-07    -6.450    -6.450    -0.000     -4.12
   H2O             5.551e+01   1.000e+00     1.744    -0.000     0.000     18.37
H(0)          3.042e-17
   H2              1.521e-17   1.521e-17   -16.818   -16.818     0.000     17.06
O(0)          0.000e+00
   O2              0.000e+00   0.000e+00   -47.261   -47.261     0.000     32.59

------------------------------Saturation indices-------------------------------

  Phase               SI** log IAP   log K(338 K,   0 atm)

  H2(g)           -13.69    -16.82   -3.13  H2
  H2O(g)           -0.61     -0.00    0.61  H2O
  O2(g)           -44.18    -47.26   -3.08  O2

**For a gas, SI = log10(fugacity). Fugacity = pressure * phi / 1 atm.
  For ideal gases, phi = 1.

Reaction step 2.

Using solution 1.	
Using temperature 1.	
Using pressure 1.	
Using reaction 1.	

Reaction 1.	

	  1.000e-01 moles of the following reaction have been added:

	                 Relative
	Reactant            moles

	NaCl                 1.00000

	                 Relative
	Element             moles
	Cl                   1.00000
	Na                   1.00000

-----------------------------Solution composition------------------------------

	Elements           Molality       Moles

	Cl                1.000e-01   1.000e-01
	Na                1.000e-01   1.000e-01

----------------------------Description of solution----------------------------

                                       pH  =   6.435      Charge balance
                                       pe  =   0.348      Adjusted to redox equilibrium
      Specific Conductance (µS/cm,  65°C)  = 19508
                          Density (g/cm³)  =   0.98446
                               Volume (L)  =   1.02172
                        Viscosity (mPa s)  =   0.43843
                        Activity of water  =   0.997
                 Ionic strength (mol/kgw)  =   1.000e-01
                       Mass of water (kg)  =   1.000e+00
                 Total alkalinity (eq/kg)  =   2.408e-17
                         Temperature (°C)  =  65.00
                           Pressure (atm)  =  0.25
                  Electrical balance (eq)  =   2.213e-15
 Percent error, 100*(Cat-|An|)/(Cat+|An|)  =   0.00
                               Iterations  =   8
                                  Total H  = 1.110124e+02
                                  Total O  = 5.550622e+01

----------------------------Distribution of species----------------------------

                                               Log       Log       Log    mole V
   Species          Molality    Activity  Molality  Activity     Gamma   cm³/mol

   OH-             4.575e-07   3.413e-07    -6.340    -6.467    -0.127     -3.58
   H+              4.508e-07   3.670e-07    -6.346    -6.435    -0.089      0.00
   H2O             5.551e+01   9.966e-01     1.744    -0.001     0.000     18.37
Cl            1.000e-01
   Cl-             1.000e-01   7.511e-02    -1.000    -1.124    -0.124     18.30
   HCl             6.717e-09   7.409e-09    -8.173    -8.130     0.043     22.17
H(0)          2.641e-17
   H2              1.321e-17   1.353e-17   -16.879   -16.869     0.011     17.06
Na            1.000e-01
   Na+             1.000e-01   7.698e-02    -1.000    -1.114    -0.114      0.19
O(0)          0.000e+00
   O2              0.000e+00   0.000e+00   -47.172   -47.162     0.010     32.59

------------------------------Saturation indices-------------------------------

  Phase               SI** log IAP   log K(338 K,   0 atm)

  H2(g)           -13.74    -16.87   -3.13  H2
  H2O(g)           -0.61     -0.00    0.61  H2O
  Halite           -3.84     -2.24    1.60  NaCl
  O2(g)           -44.08    -47.16   -3.08  O2

**For a gas, SI = log10(fugacity). Fugacity = pressure * phi / 1 atm.
  For ideal gases, phi = 1.

Reaction step 3.

Using solution 1.	
Using temperature 1.	
Using pressure 1.	
Using reaction 1.	

Reaction 1.	

	  2.167e-01 moles of the following reaction have been added:

	                 Relative
	Reactant            moles

	NaCl                 1.00000

	                 Relative
	Element             moles
	Cl                   1.00000
	Na                   1.00000

-----------------------------Solution composition------------------------------

	Elements           Molality       Moles

	Cl                2.167e-01   2.167e-01
	Na                2.167e-01   2.167e-01

----------------------------Description of solution----------------------------

                                       pH  =   6.428      Charge balance
                                       pe  =   0.334      Adjusted to redox equilibrium
      Specific Conductance (µS/cm,  65°C)  = 39735
                          Density (g/cm³)  =   0.98897
                               Volume (L)  =   1.02396
                        Viscosity (mPa s)  =   0.44418
                        Activity of water  =   0.993
                 Ionic strength (mol/kgw)  =   2.167e-01
                       Mass of water (kg)  =   1.000e+00
                 Total alkalinity (eq/kg)  =   2.805e-17
                         Temperature (°C)  =  65.00
                           Pressure (atm)  =  0.25
                  Electrical balance (eq)  =  -2.395e-14
 Percent error, 100*(Cat-|An|)/(Cat+|An|)  =  -0.00
                               Iterations  =  15
                                  Total H  = 1.110124e+02
                                  Total O  = 5.550622e+01

----------------------------Distribution of species----------------------------

                                               Log       Log       Log    mole V
   Species          Molality    Activity  Molality  Activity     Gamma   cm³/mol

   OH-             4.897e-07   3.341e-07    -6.310    -6.476    -0.166     -3.24
   H+              4.776e-07   3.734e-07    -6.321    -6.428    -0.107      0.00
   H2O             5.551e+01   9.926e-01     1.744    -0.003     0.000     18.37
Cl            2.167e-01
   Cl-             2.167e-01   1.498e-01    -0.664    -0.824    -0.160     18.49
   HCl             1.216e-08   1.504e-08    -7.915    -7.823     0.092     22.17
H(0)          2.834e-17
   H2              1.417e-17   1.493e-17   -16.849   -16.826     0.023     17.06
Na            2.167e-01
   Na+             2.167e-01   1.573e-01    -0.664    -0.803    -0.139      0.34
O(0)          0.000e+00
   O2              0.000e+00   0.000e+00   -47.273   -47.252     0.022     32.59

------------------------------Saturation indices-------------------------------

  Phase               SI** log IAP   log K(338 K,   0 atm)

  H2(g)           -13.70    -16.83   -3.13  H2
  H2O(g)           -0.61     -0.00    0.61  H2O
  Halite           -3.23     -1.63    1.60  NaCl
  O2(g)           -44.17    -47.25   -3.08  O2

**For a gas, SI = log10(fugacity). Fugacity = pressure * phi / 1 atm.
  For ideal gases, phi = 1.

Reaction step 4.

Using solution 1.	
Using temperature 1.	
Using pressure 1.	
Using reaction 1.	

Reaction 1.	

	  2.562e-01 moles of the following reaction have been added:

	                 Relative
	Reactant            moles

	NaCl                 1.00000

	                 Relative
	Element             moles
	Cl                   1.00000
	Na                   1.00000

-----------------------------Solution composition------------------------------

	Elements           Molality       Moles

	Cl                2.562e-01   2.562e-01
	Na                2.562e-01   2.562e-01

----------------------------Description of solution----------------------------

                                       pH  =   6.426      Charge balance
                                       pe  =  -0.164      Adjusted to redox equilibrium
      Specific Conductance (µS/cm,  65°C)  = 46252
                          Density (g/cm³)  =   0.99049
                               Volume (L)  =   1.02472
                        Viscosity (mPa s)  =   0.44611
                        Activity of water  =   0.991
                 Ionic strength (mol/kgw)  =   2.562e-01
                       Mass of water (kg)  =   1.000e+00
                 Total alkalinity (eq/kg)  =   5.452e-17
                         Temperature (°C)  =  65.00
                           Pressure (atm)  =  0.25
                  Electrical balance (eq)  =  -3.220e-13
 Percent error, 100*(Cat-|An|)/(Cat+|An|)  =  -0.00
                               Iterations  =  13
                                  Total H  = 1.110124e+02
                                  Total O  = 5.550622e+01

----------------------------Distribution of species----------------------------

                                               Log       Log       Log    mole V
   Species          Molality    Activity  Molality  Activity     Gamma   cm³/mol

   OH-             4.973e-07   3.322e-07    -6.303    -6.479    -0.175     -3.14
   H+              4.837e-07   3.750e-07    -6.315    -6.426    -0.111      0.00
   H2O             5.551e+01   9.913e-01     1.744    -0.004     0.000     18.37
Cl            2.562e-01
   Cl-             2.562e-01   1.738e-01    -0.591    -0.760    -0.168     18.54
   HCl             1.363e-08   1.752e-08    -7.866    -7.756     0.109     22.17
H(0)          2.799e-16
   H2              1.399e-16   1.489e-16   -15.854   -15.827     0.027     17.06
Na            2.562e-01
   Na+             2.562e-01   1.839e-01    -0.591    -0.736    -0.144      0.37
O(0)          0.000e+00
   O2              0.000e+00   0.000e+00   -49.276   -49.250     0.026     32.59

------------------------------Saturation indices-------------------------------

  Phase               SI** log IAP   log K(338 K,   0 atm)

  H2(g)           -12.70    -15.83   -3.13  H2
  H2O(g)           -0.61     -0.00    0.61  H2O
  Halite           -3.09     -1.50    1.60  NaCl
  O2(g)           -46.17    -49.25   -3.08  O2

**For a gas, SI = log10(fugacity). Fugacity = pressure * phi / 1 atm.
  For ideal gases, phi = 1.

Reaction step 5.

Using solution 1.	
Using temperature 1.	
Using pressure 1.	
Using reaction 1.	

Reaction 1.	

	  3.494e-01 moles of the following reaction have been added:

	                 Relative
	Reactant            moles

	NaCl                 1.00000

	                 Relative
	Element             moles
	Cl                   1.00000
	Na                   1.00000

-----------------------------Solution composition------------------------------

	Elements           Molality       Moles

	Cl                3.494e-01   3.494e-01
	Na                3.494e-01   3.494e-01

----------------------------Description of solution----------------------------

                                       pH  =   6.422      Charge balance
                                       pe  =   0.186      Adjusted to redox equilibrium
      Specific Conductance (µS/cm,  65°C)  = 61136
                          Density (g/cm³)  =   0.99403
                               Volume (L)  =   1.02655
                        Viscosity (mPa s)  =   0.45068
                        Activity of water  =   0.988
                 Ionic strength (mol/kgw)  =   3.494e-01
                       Mass of water (kg)  =   1.000e+00
                 Total alkalinity (eq/kg)  =   4.625e-17
                         Temperature (°C)  =  65.00
                           Pressure (atm)  =  0.25
                  Electrical balance (eq)  =  -2.128e-12
 Percent error, 100*(Cat-|An|)/(Cat+|An|)  =  -0.00
                               Iterations  =   8
                                  Total H  = 1.110124e+02
                                  Total O  = 5.550622e+01

----------------------------Distribution of species----------------------------

                                               Log       Log       Log    mole V
   Species          Molality    Activity  Molality  Activity     Gamma   cm³/mol

   OH-             5.117e-07   3.284e-07    -6.291    -6.484    -0.193     -2.93
   H+              4.952e-07   3.781e-07    -6.305    -6.422    -0.117      0.00
   H2O             5.551e+01   9.881e-01     1.744    -0.005     0.000     18.37
Cl            3.494e-01
   Cl-             3.494e-01   2.288e-01    -0.457    -0.640    -0.184     18.64
   HCl             1.651e-08   2.326e-08    -7.782    -7.633     0.149     22.17
H(0)          5.565e-17
   H2              2.783e-17   3.028e-17   -16.556   -16.519     0.037     17.06
Na            3.494e-01
   Na+             3.494e-01   2.464e-01    -0.457    -0.608    -0.152      0.45
O(0)          0.000e+00
   O2              0.000e+00   0.000e+00   -47.904   -47.869     0.035     32.59

------------------------------Saturation indices-------------------------------

  Phase               SI** log IAP   log K(338 K,   0 atm)

  H2(g)           -13.39    -16.52   -3.13  H2
  H2O(g)           -0.62     -0.01    0.61  H2O
  Halite           -2.85     -1.25    1.60  NaCl
  O2(g)           -44.79    -47.87   -3.08  O2

**For a gas, SI = log10(fugacity). Fugacity = pressure * phi / 1 atm.
  For ideal gases, phi = 1.

Reaction step 6.

Using solution 1.	
Using temperature 1.	
Using pressure 1.	
Using reaction 1.	

Reaction 1.	

	  5.190e-01 moles of the following reaction have been added:

	                 Relative
	Reactant            moles

	NaCl                 1.00000

	                 Relative
	Element             moles
	Cl                   1.00000
	Na                   1.00000

-----------------------------Solution composition------------------------------

	Elements           Molality       Moles

	Cl                5.190e-01   5.190e-01
	Na                5.190e-01   5.190e-01

----------------------------Description of solution----------------------------

                                       pH  =   6.418      Charge balance
                                       pe  =   0.167      Adjusted to redox equilibrium
      Specific Conductance (µS/cm,  65°C)  = 86751
                          Density (g/cm³)  =   1.00040
                               Volume (L)  =   1.02992
                        Viscosity (mPa s)  =   0.45908
                        Activity of water  =   0.982
                 Ionic strength (mol/kgw)  =   5.190e-01
                       Mass of water (kg)  =   1.000e+00
                 Total alkalinity (eq/kg)  =   4.745e-17
                         Temperature (°C)  =  65.00
                           Pressure (atm)  =  0.25
                  Electrical balance (eq)  =  -3.386e-14
 Percent error, 100*(Cat-|An|)/(Cat+|An|)  =  -0.00
                               Iterations  =  11
                                  Total H  = 1.110124e+02
                                  Total O  = 5.550622e+01

----------------------------Distribution of species----------------------------

                                               Log       Log       Log    mole V
   Species          Molality    Activity  Molality  Activity     Gamma   cm³/mol

   OH-             5.303e-07   3.229e-07    -6.276    -6.491    -0.215     -2.56
   H+              5.102e-07   3.823e-07    -6.292    -6.418    -0.125      0.00
   H2O             5.551e+01   9.824e-01     1.744    -0.008     0.000     18.37
Cl            5.190e-01
   Cl-             5.190e-01   3.252e-01    -0.285    -0.488    -0.203     18.80
   HCl             2.010e-08   3.342e-08    -7.697    -7.476     0.221     22.17
H(0)          5.965e-17
   H2              2.983e-17   3.381e-17   -16.525   -16.471     0.054     17.06
Na            5.190e-01
   Na+             5.190e-01   3.610e-01    -0.285    -0.443    -0.158      0.56
O(0)          0.000e+00
   O2              0.000e+00   0.000e+00   -48.022   -47.970     0.052     32.59

------------------------------Saturation indices-------------------------------

  Phase               SI** log IAP   log K(338 K,   0 atm)

  H2(g)           -13.34    -16.47   -3.13  H2
  H2O(g)           -0.62     -0.01    0.61  H2O
  Halite           -2.53     -0.93    1.60  NaCl
  O2(g)           -44.89    -47.97   -3.08  O2

**For a gas, SI = log10(fugacity). Fugacity = pressure * phi / 1 atm.
  For ideal gases, phi = 1.

Reaction step 7.

Using solution 1.	
Using temperature 1.	
Using pressure 1.	
Using reaction 1.	

Reaction 1.	

	  5.275e-01 moles of the following reaction have been added:

	                 Relative
	Reactant            moles

	NaCl                 1.00000

	                 Relative
	Element             moles
	Cl                   1.00000
	Na                   1.00000

-----------------------------Solution composition------------------------------

	Elements           Molality       Moles

	Cl                5.275e-01   5.275e-01
	Na                5.275e-01   5.275e-01

----------------------------Description of solution----------------------------

                                       pH  =   6.417      Charge balance
                                       pe  =   0.363      Adjusted to redox equilibrium
      Specific Conductance (µS/cm,  65°C)  = 87996
                          Density (g/cm³)  =   1.00072
                               Volume (L)  =   1.03009
                        Viscosity (mPa s)  =   0.45950
                        Activity of water  =   0.982
                 Ionic strength (mol/kgw)  =   5.275e-01
                       Mass of water (kg)  =   1.000e+00
                 Total alkalinity (eq/kg)  =   1.620e-17
                         Temperature (°C)  =  65.00
                           Pressure (atm)  =  0.25
                  Electrical balance (eq)  =  -2.280e-12
 Percent error, 100*(Cat-|An|)/(Cat+|An|)  =  -0.00
                               Iterations  =  18
                                  Total H  = 1.110124e+02
                                  Total O  = 5.550622e+01

----------------------------Distribution of species----------------------------

                                               Log       Log       Log    mole V
   Species          Molality    Activity  Molality  Activity     Gamma   cm³/mol

   OH-             5.310e-07   3.226e-07    -6.275    -6.491    -0.216     -2.54
   H+              5.108e-07   3.825e-07    -6.292    -6.417    -0.126      0.00
   H2O             5.551e+01   9.821e-01     1.744    -0.008     0.000     18.37
Cl            5.275e-01
   Cl-             5.275e-01   3.300e-01    -0.278    -0.482    -0.204     18.81
   HCl             2.023e-08   3.393e-08    -7.694    -7.469     0.225     22.17
H(0)          2.413e-17
   H2              1.207e-17   1.371e-17   -16.918   -16.863     0.055     17.06
Na            5.275e-01
   Na+             5.275e-01   3.668e-01    -0.278    -0.436    -0.158      0.56
O(0)          0.000e+00
   O2              0.000e+00   0.000e+00   -47.239   -47.186     0.053     32.59

------------------------------Saturation indices-------------------------------

  Phase               SI** log IAP   log K(338 K,   0 atm)

  H2(g)           -13.74    -16.86   -3.13  H2
  H2O(g)           -0.62     -0.01    0.61  H2O
  Halite           -2.52     -0.92    1.60  NaCl
  O2(g)           -44.11    -47.19   -3.08  O2

**For a gas, SI = log10(fugacity). Fugacity = pressure * phi / 1 atm.
  For ideal gases, phi = 1.

Reaction step 8.

Using solution 1.	
Using temperature 1.	
Using pressure 1.	
Using reaction 1.	

Reaction 1.	

	  6.258e-01 moles of the following reaction have been added:

	                 Relative
	Reactant            moles

	NaCl                 1.00000

	                 Relative
	Element             moles
	Cl                   1.00000
	Na                   1.00000

-----------------------------Solution composition------------------------------

	Elements           Molality       Moles

	Cl                6.258e-01   6.258e-01
	Na                6.258e-01   6.258e-01

----------------------------Description of solution----------------------------

                                       pH  =   6.415      Charge balance
                                       pe  =   7.773      Adjusted to redox equilibrium
      Specific Conductance (µS/cm,  65°C)  = 102067
                          Density (g/cm³)  =   1.00436
                               Volume (L)  =   1.03207
                        Viscosity (mPa s)  =   0.46445
                        Activity of water  =   0.979
                 Ionic strength (mol/kgw)  =   6.258e-01
                       Mass of water (kg)  =   1.000e+00
                 Total alkalinity (eq/kg)  =   1.123e-16
                         Temperature (°C)  =  65.00
                           Pressure (atm)  =  0.25
                  Electrical balance (eq)  =  -3.969e-16
 Percent error, 100*(Cat-|An|)/(Cat+|An|)  =  -0.00
                               Iterations  =  13
                                  Total H  = 1.110124e+02
                                  Total O  = 5.550622e+01

----------------------------Distribution of species----------------------------

                                               Log       Log       Log    mole V
   Species          Molality    Activity  Molality  Activity     Gamma   cm³/mol

   OH-             5.388e-07   3.199e-07    -6.269    -6.495    -0.226     -2.35
   H+              5.173e-07   3.845e-07    -6.286    -6.415    -0.129      0.00
   H2O             5.551e+01   9.787e-01     1.744    -0.009     0.000     18.37
Cl            6.258e-01
   Cl-             6.258e-01   3.843e-01    -0.204    -0.415    -0.212     18.88
   HCl             2.151e-08   3.971e-08    -7.667    -7.401     0.266     22.17
H(0)          3.606e-32
   H2              1.803e-32   2.097e-32   -31.744   -31.678     0.066     17.06
Na            6.258e-01
   Na+             6.258e-01   4.346e-01    -0.204    -0.362    -0.158      0.61
O(0)          4.783e-18
   O2              2.391e-18   2.762e-18   -17.621   -17.559     0.063     32.59

------------------------------Saturation indices-------------------------------

  Phase               SI** log IAP   log K(338 K,   0 atm)

  H2(g)           -28.55    -31.68   -3.13  H2
  H2O(g)           -0.62     -0.01    0.61  H2O
  Halite           -2.38     -0.78    1.60  NaCl
  O2(g)           -14.48    -17.56   -3.08  O2

**For a gas, SI = log10(fugacity). Fugacity = pressure * phi / 1 atm.
  For ideal gases, phi = 1.

Reaction step 9.

Using solution 1.	
Using temperature 1.	
Using pressure 1.	
Using reaction 1.	

Reaction 1.	

	  7.790e-01 moles of the following reaction have been added:

	                 Relative
	Reactant            moles

	NaCl                 1.00000

	                 Relative
	Element             moles
	Cl                   1.00000
	Na                   1.00000

-----------------------------Solution composition------------------------------

	Elements           Molality       Moles

	Cl                7.790e-01   7.790e-01
	Na                7.790e-01   7.790e-01

----------------------------Description of solution----------------------------

                                       pH  =   6.412      Charge balance
                                       pe  =   0.212      Adjusted to redox equilibrium
      Specific Conductance (µS/cm,  65°C)  = 123057
                          Density (g/cm³)  =   1.00998
                               Volume (L)  =   1.03520
                        Viscosity (mPa s)  =   0.47227
                        Activity of water  =   0.974
                 Ionic strength (mol/kgw)  =   7.790e-01
                       Mass of water (kg)  =   1.000e+00
                 Total alkalinity (eq/kg)  =   3.332e-17
                         Temperature (°C)  =  65.00
                           Pressure (atm)  =  0.25
                  Electrical balance (eq)  =  -1.481e-10
 Percent error, 100*(Cat-|An|)/(Cat+|An|)  =  -0.00
                               Iterations  =  11
                                  Total H  = 1.110124e+02
                                  Total O  = 5.550622e+01

----------------------------Distribution of species----------------------------

                                               Log       Log       Log    mole V
   Species          Molality    Activity  Molality  Activity     Gamma   cm³/mol

   OH-             5.484e-07   3.161e-07    -6.261    -6.500    -0.239     -2.05
   H+              5.257e-07   3.871e-07    -6.279    -6.412    -0.133      0.00
   H2O             5.551e+01   9.735e-01     1.744    -0.012     0.000     18.37
Cl            7.790e-01
   Cl-             7.790e-01   4.677e-01    -0.108    -0.330    -0.222     18.98
   HCl             2.268e-08   4.866e-08    -7.644    -7.313     0.332     22.17
H(0)          4.666e-17
   H2              2.333e-17   2.817e-17   -16.632   -16.550     0.082     17.06
Na            7.790e-01
   Na+             7.790e-01   5.430e-01    -0.108    -0.265    -0.157      0.68
O(0)          0.000e+00
   O2              0.000e+00   0.000e+00   -47.897   -47.819     0.078     32.59

------------------------------Saturation indices-------------------------------

  Phase               SI** log IAP   log K(338 K,   0 atm)

  H2(g)           -13.42    -16.55   -3.13  H2
  H2O(g)           -0.62     -0.01    0.61  H2O
  Halite           -2.19     -0.60    1.60  NaCl
  O2(g)           -44.74    -47.82   -3.08  O2

**For a gas, SI = log10(fugacity). Fugacity = pressure * phi / 1 atm.
  For ideal gases, phi = 1.

Reaction step 10.

Using solution 1.	
Using temperature 1.	
Using pressure 1.	
Using reaction 1.	

Reaction 1.	

	  8.752e-01 moles of the following reaction have been added:

	                 Relative
	Reactant            moles

	NaCl                 1.00000

	                 Relative
	Element             moles
	Cl                   1.00000
	Na                   1.00000

-----------------------------Solution composition------------------------------

	Elements           Molality       Moles

	Cl                8.753e-01   8.753e-01
	Na                8.753e-01   8.753e-01

----------------------------Description of solution----------------------------

                                       pH  =   6.411      Charge balance
                                       pe  =   0.207      Adjusted to redox equilibrium
      Specific Conductance (µS/cm,  65°C)  = 135709
                          Density (g/cm³)  =   1.01348
                               Volume (L)  =   1.03717
                        Viscosity (mPa s)  =   0.47727
                        Activity of water  =   0.970
                 Ionic strength (mol/kgw)  =   8.753e-01
                       Mass of water (kg)  =   1.000e+00
                 Total alkalinity (eq/kg)  =   1.440e-17
                         Temperature (°C)  =  65.00
                           Pressure (atm)  =  0.25
                  Electrical balance (eq)  =  -4.469e-11
 Percent error, 100*(Cat-|An|)/(Cat+|An|)  =  -0.00
                               Iterations  =  16
                                  Total H  = 1.110124e+02
                                  Total O  = 5.550622e+01

----------------------------Distribution of species----------------------------

                                               Log       Log       Log    mole V
   Species          Molality    Activity  Molality  Activity     Gamma   cm³/mol

   OH-             5.532e-07   3.139e-07    -6.257    -6.503    -0.246     -1.88
   H+              5.302e-07   3.885e-07    -6.276    -6.411    -0.135      0.00
   H2O             5.551e+01   9.702e-01     1.744    -0.013     0.000     18.37
Cl            8.753e-01
   Cl-             8.752e-01   5.195e-01    -0.058    -0.284    -0.227     19.04
   HCl             2.301e-08   5.425e-08    -7.638    -7.266     0.373     22.17
H(0)          4.690e-17
   H2              2.345e-17   2.898e-17   -16.630   -16.538     0.092     17.06
Na            8.753e-01
   Na+             8.753e-01   6.130e-01    -0.058    -0.213    -0.155      0.72
O(0)          0.000e+00
   O2              0.000e+00   0.000e+00   -47.935   -47.847     0.088     32.59

------------------------------Saturation indices-------------------------------

  Phase               SI** log IAP   log K(338 K,   0 atm)

  H2(g)           -13.41    -16.54   -3.13  H2
  H2O(g)           -0.62     -0.01    0.61  H2O
  Halite           -2.10     -0.50    1.60  NaCl
  O2(g)           -44.77    -47.85   -3.08  O2

**For a gas, SI = log10(fugacity). Fugacity = pressure * phi / 1 atm.
  For ideal gases, phi = 1.

Reaction step 11.

Using solution 1.	
Using temperature 1.	
Using pressure 1.	
Using reaction 1.	

Reaction 1.	

	  1.000e+00 moles of the following reaction have been added:

	                 Relative
	Reactant            moles

	NaCl                 1.00000

	                 Relative
	Element             moles
	Cl                   1.00000
	Na                   1.00000

-----------------------------Solution composition------------------------------

	Elements           Molality       Moles

	Cl                1.000e+00   1.000e+00
	Na                1.000e+00   1.000e+00

----------------------------Description of solution----------------------------

                                       pH  =   6.409      Charge balance
                                       pe  =  -0.141      Adjusted to redox equilibrium
      Specific Conductance (µS/cm,  65°C)  = 151535
                          Density (g/cm³)  =   1.01797
                               Volume (L)  =   1.03976
                        Viscosity (mPa s)  =   0.48385
                        Activity of water  =   0.966
                 Ionic strength (mol/kgw)  =   1.000e+00
                       Mass of water (kg)  =   1.000e+00
                 Total alkalinity (eq/kg)  =   1.762e-16
                         Temperature (°C)  =  65.00
                           Pressure (atm)  =  0.25
                  Electrical balance (eq)  =  -2.419e-16
 Percent error, 100*(Cat-|An|)/(Cat+|An|)  =  -0.00
                               Iterations  =   9
                                  Total H  = 1.110124e+02
                                  Total O  = 5.550622e+01

----------------------------Distribution of species----------------------------

                                               Log       Log       Log    mole V
   Species          Molality    Activity  Molality  Activity     Gamma   cm³/mol

   OH-             5.583e-07   3.112e-07    -6.253    -6.507    -0.254     -1.65
   H+              5.353e-07   3.901e-07    -6.271    -6.409    -0.137      0.00
   H2O             5.551e+01   9.660e-01     1.744    -0.015     0.000     18.37
Cl            1.000e+00
   Cl-             1.000e+00   5.863e-01    -0.000    -0.232    -0.232     19.11
   HCl             2.307e-08   6.148e-08    -7.637    -7.211     0.426     22.17
H(0)          2.278e-16
   H2              1.139e-16   1.451e-16   -15.943   -15.838     0.105     17.06
Na            1.000e+00
   Na+             1.000e+00   7.063e-01     0.000    -0.151    -0.151      0.77
O(0)          0.000e+00
   O2              0.000e+00   0.000e+00   -49.350   -49.250     0.100     32.59

------------------------------Saturation indices-------------------------------

  Phase               SI** log IAP   log K(338 K,   0 atm)

  H2(g)           -12.71    -15.84   -3.13  H2
  H2O(g)           -0.63     -0.02    0.61  H2O
  Halite           -1.98     -0.38    1.60  NaCl
  O2(g)           -46.17    -49.25   -3.08  O2

**For a gas, SI = log10(fugacity). Fugacity = pressure * phi / 1 atm.
  For ideal gases, phi = 1.

Reaction step 12.

Using solution 1.	
Using temperature 1.	
Using pressure 1.	
Using reaction 1.	

Reaction 1.	

	  1.104e+00 moles of the following reaction have been added:

	                 Relative
	Reactant            moles

	NaCl                 1.00000

	                 Relative
	Element             moles
	Cl                   1.00000
	Na                   1.00000

-----------------------------Solution composition------------------------------

	Elements           Molality       Moles

	Cl                1.104e+00   1.104e+00
	Na                1.104e+00   1.104e+00

----------------------------Description of solution----------------------------

                                       pH  =   6.407      Charge balance
                                       pe  =   0.044      Adjusted to redox equilibrium
      Specific Conductance (µS/cm,  65°C)  = 164217
                          Density (g/cm³)  =   1.02168
                               Volume (L)  =   1.04192
                        Viscosity (mPa s)  =   0.48941
                        Activity of water  =   0.962
                 Ionic strength (mol/kgw)  =   1.104e+00
                       Mass of water (kg)  =   1.000e+00
                 Total alkalinity (eq/kg)  =   9.378e-17
                         Temperature (°C)  =  65.00
                           Pressure (atm)  =  0.25
                  Electrical balance (eq)  =  -5.130e-14
 Percent error, 100*(Cat-|An|)/(Cat+|An|)  =  -0.00
                               Iterations  =  18
                                  Total H  = 1.110124e+02
                                  Total O  = 5.550622e+01

----------------------------Distribution of species----------------------------

                                               Log       Log       Log    mole V
   Species          Molality    Activity  Molality  Activity     Gamma   cm³/mol

   OH-             5.619e-07   3.091e-07    -6.250    -6.510    -0.260     -1.47
   H+              5.390e-07   3.914e-07    -6.268    -6.407    -0.139      0.00
   H2O             5.551e+01   9.625e-01     1.744    -0.017     0.000     18.37
Cl            1.104e+00
   Cl-             1.104e+00   6.415e-01     0.043    -0.193    -0.236     19.17
   HCl             2.288e-08   6.748e-08    -7.641    -7.171     0.470     22.17
H(0)          9.568e-17
   H2              4.784e-17   6.247e-17   -16.320   -16.204     0.116     17.06
Na            1.104e+00
   Na+             1.104e+00   7.861e-01     0.043    -0.105    -0.147      0.80
O(0)          0.000e+00
   O2              0.000e+00   0.000e+00   -48.632   -48.521     0.110     32.59

------------------------------Saturation indices-------------------------------

  Phase               SI** log IAP   log K(338 K,   0 atm)

  H2(g)           -13.08    -16.20   -3.13  H2
  H2O(g)           -0.63     -0.02    0.61  H2O
  Halite           -1.90     -0.30    1.60  NaCl
  O2(g)           -45.44    -48.52   -3.08  O2

[...]
   OH-             3.548e-07   3.545e-07    -6.450    -6.450    -0.000     -4.13
   H2O             5.551e+01   1.000e+00     1.744    -0.000     0.000     18.37
H(0)          3.042e-17
   H2              1.521e-17   1.521e-17   -16.818   -16.818     0.000     17.06
O(0)          0.000e+00
   O2              0.000e+00   0.000e+00   -47.261   -47.261     0.000     32.59

------------------------------Saturation indices-------------------------------

  Phase               SI** log IAP   log K(338 K,   1 atm)

  H2(g)           -13.69    -16.82   -3.13  H2
  H2O(g)           -0.61     -0.00    0.61  H2O
  O2(g)           -44.18    -47.26   -3.08  O2

**For a gas, SI = log10(fugacity). Fugacity = pressure * phi / 1 atm.
  For ideal gases, phi = 1.

Reaction step 2.

Using solution 1.	
Using temperature 1.	
Using pressure 1.	
Using reaction 1.	

Reaction 1.	

	  1.509e-02 moles of the following reaction have been added:

	                 Relative
	Reactant            moles

	NaNO3                1.00000

	                 Relative
	Element             moles
	N                    1.00000
	Na                   1.00000
	O                    3.00000

-----------------------------Solution composition------------------------------

	Elements           Molality       Moles

	N                 1.509e-02   1.509e-02
	Na                1.509e-02   1.509e-02

----------------------------Description of solution----------------------------

                                       pH  =   6.622      Charge balance
                                       pe  =  10.357      Adjusted to redox equilibrium
      Specific Conductance (µS/cm,  65°C)  = 3192
                          Density (g/cm³)  =   0.98134
                               Volume (L)  =   1.02032
                        Viscosity (mPa s)  =   0.43382
                        Activity of water  =   0.999
                 Ionic strength (mol/kgw)  =   1.509e-02
                       Mass of water (kg)  =   1.000e+00
                 Total alkalinity (eq/kg)  =   3.344e-07
                         Temperature (°C)  =  65.00
                  Electrical balance (eq)  =  -3.016e-12
 Percent error, 100*(Cat-|An|)/(Cat+|An|)  =  -0.00
                               Iterations  =  18
                                  Total H  = 1.110124e+02
                                  Total O  = 5.555149e+01

----------------------------Distribution of species----------------------------

                                               Log       Log       Log    mole V
   Species          Molality    Activity  Molality  Activity     Gamma   cm³/mol

   OH-             6.023e-07   5.255e-07    -6.220    -6.279    -0.059     -3.94
   H+              2.679e-07   2.391e-07    -6.572    -6.622    -0.049      0.00
   H2O             5.551e+01   9.995e-01     1.744    -0.000     0.000     18.37
H(0)          1.095e-37
   H2              5.476e-38   5.497e-38   -37.261   -37.260     0.002     17.06
N(0)          3.344e-07
   N2              1.672e-07   1.678e-07    -6.777    -6.775     0.002     29.29
N(3)          9.938e-12
   NO2-            9.938e-12   8.649e-12   -11.003   -11.063    -0.060     25.79
N(5)          1.509e-02
   NO3-            1.509e-02   1.313e-02    -1.821    -1.882    -0.060     31.85
Na            1.509e-02
   Na+             1.509e-02   1.324e-02    -1.821    -1.878    -0.057     -0.05
O(0)          8.359e-07
   O2              4.180e-07   4.194e-07    -6.379    -6.377     0.002     32.59

------------------------------Saturation indices-------------------------------

  Phase               SI** log IAP   log K(338 K,   1 atm)

  H2(g)           -34.13    -37.26   -3.13  H2
  H2O(g)           -0.61     -0.00    0.61  H2O
  N2(g)            -3.45     -6.78   -3.32  N2
  O2(g)            -3.30     -6.38   -3.08  O2

**For a gas, SI = log10(fugacity). Fugacity = pressure * phi / 1 atm.
  For ideal gases, phi = 1.

Reaction step 3.

Using solution 1.	
Using temperature 1.	
Using pressure 1.	
Using reaction 1.	

Reaction 1.	

	  3.017e-02 moles of the following reaction have been added:

	                 Relative
	Reactant            moles

	NaNO3                1.00000

	                 Relative
	Element             moles
	N                    1.00000
	Na                   1.00000
	O                    3.00000

-----------------------------Solution composition------------------------------

	Elements           Molality       Moles

	N                 3.017e-02   3.017e-02
	Na                3.017e-02   3.017e-02

----------------------------Description of solution----------------------------

                                       pH  =   6.668      Charge balance
                                       pe  =  10.345      Adjusted to redox equilibrium
      Specific Conductance (µS/cm,  65°C)  = 6171
                          Density (g/cm³)  =   0.98213
                               Volume (L)  =   1.02081
                        Viscosity (mPa s)  =   0.43451
                        Activity of water  =   0.999
                 Ionic strength (mol/kgw)  =   3.017e-02
                       Mass of water (kg)  =   1.000e+00
                 Total alkalinity (eq/kg)  =   4.531e-07
                         Temperature (°C)  =  65.00
                  Electrical balance (eq)  =  -4.044e-15
 Percent error, 100*(Cat-|An|)/(Cat+|An|)  =  -0.00
                               Iterations  =  10
                                  Total H  = 1.110124e+02
                                  Total O  = 5.559673e+01

----------------------------Distribution of species----------------------------

                                               Log       Log       Log    mole V
   Species          Molality    Activity  Molality  Activity     Gamma   cm³/mol

   OH-             7.016e-07   5.840e-07    -6.154    -6.234    -0.080     -3.85
   H+              2.485e-07   2.150e-07    -6.605    -6.668    -0.063      0.00
   H2O             5.551e+01   9.990e-01     1.744    -0.000     0.000     18.37
H(0)          9.354e-38
   H2              4.677e-38   4.711e-38   -37.330   -37.327     0.003     17.06
N(0)          4.531e-07
   N2              2.266e-07   2.281e-07    -6.645    -6.642     0.003     29.29
N(3)          1.704e-11
   NO2-            1.704e-11   1.412e-11   -10.769   -10.850    -0.082     25.86
N(5)          3.017e-02
   NO3-            3.017e-02   2.500e-02    -1.520    -1.602    -0.082     31.92
Na            3.017e-02
   Na+             3.017e-02   2.539e-02    -1.520    -1.595    -0.075      0.02
O(0)          1.133e-06
   O2              5.664e-07   5.704e-07    -6.247    -6.244     0.003     32.59

------------------------------Saturation indices-------------------------------

  Phase               SI** log IAP   log K(338 K,   1 atm)

  H2(g)           -34.20    -37.33   -3.13  H2
  H2O(g)           -0.61     -0.00    0.61  H2O
  N2(g)            -3.32     -6.64   -3.32  N2
  O2(g)            -3.17     -6.24   -3.08  O2

**For a gas, SI = log10(fugacity). Fugacity = pressure * phi / 1 atm.
  For ideal gases, phi = 1.

Reaction step 4.

Using solution 1.	
Using temperature 1.	
Using pressure 1.	
Using reaction 1.	

Reaction 1.	

	  6.039e-02 moles of the following reaction have been added:

	                 Relative
	Reactant            moles

	NaNO3                1.00000

	                 Relative
	Element             moles
	N                    1.00000
	Na                   1.00000
	O                    3.00000

-----------------------------Solution composition------------------------------

	Elements           Molality       Moles

	N                 6.039e-02   6.039e-02
	Na                6.039e-02   6.039e-02

----------------------------Description of solution----------------------------

                                       pH  =   6.718      Charge balance
                                       pe  =  10.327      Adjusted to redox equilibrium
      Specific Conductance (µS/cm,  65°C)  = 11806
                          Density (g/cm³)  =   0.98371
                               Volume (L)  =   1.02178
                        Viscosity (mPa s)  =   0.43581
                        Activity of water  =   0.998
                 Ionic strength (mol/kgw)  =   6.039e-02
                       Mass of water (kg)  =   1.000e+00
                 Total alkalinity (eq/kg)  =   6.047e-07
                         Temperature (°C)  =  65.00
                  Electrical balance (eq)  =  -1.887e-13
 Percent error, 100*(Cat-|An|)/(Cat+|An|)  =  -0.00
                               Iterations  =  10
                                  Total H  = 1.110124e+02
                                  Total O  = 5.568739e+01

----------------------------Distribution of species----------------------------

                                               Log       Log       Log    mole V
   Species          Molality    Activity  Molality  Activity     Gamma   cm³/mol

   OH-             8.340e-07   6.545e-07    -6.079    -6.184    -0.105     -3.72
   H+              2.293e-07   1.916e-07    -6.640    -6.718    -0.078      0.00
   H2O             5.551e+01   9.979e-01     1.744    -0.001     0.000     18.37
H(0)          8.002e-38
   H2              4.001e-38   4.060e-38   -37.398   -37.391     0.006     17.06
N(0)          6.047e-07
   N2              3.023e-07   3.066e-07    -6.519    -6.513     0.006     29.29
N(3)          2.942e-11
   NO2-            2.942e-11   2.290e-11   -10.531   -10.640    -0.109     25.96
N(5)          6.039e-02
   NO3-            6.039e-02   4.701e-02    -1.219    -1.328    -0.109     32.01
Na            6.039e-02
   Na+             6.039e-02   4.835e-02    -1.219    -1.316    -0.097      0.11
O(0)          1.512e-06
   O2              7.559e-07   7.665e-07    -6.122    -6.116     0.006     32.59

------------------------------Saturation indices-------------------------------

  Phase               SI** log IAP   log K(338 K,   1 atm)

  H2(g)           -34.26    -37.39   -3.13  H2
  H2O(g)           -0.61     -0.00    0.61  H2O
  N2(g)            -3.19     -6.51   -3.32  N2
  O2(g)            -3.04     -6.12   -3.08  O2

**For a gas, SI = log10(fugacity). Fugacity = pressure * phi / 1 atm.
  For ideal gases, phi = 1.

Reaction step 5.

Using solution 1.	
Using temperature 1.	
Using pressure 1.	
Using reaction 1.	

Reaction 1.	

	  1.208e-01 moles of the following reaction have been added:

	                 Relative
	Reactant            moles

	NaNO3                1.00000

	                 Relative
	Element             moles
	N                    1.00000
	Na                   1.00000
	O                    3.00000

-----------------------------Solution composition------------------------------

	Elements           Molality       Moles

	N                 1.208e-01   1.208e-01
	Na                1.208e-01   1.208e-01

----------------------------Description of solution----------------------------

                                       pH  =   6.768      Charge balance
                                       pe  =  10.307      Adjusted to redox equilibrium
      Specific Conductance (µS/cm,  65°C)  = 22233
                          Density (g/cm³)  =   0.98683
                               Volume (L)  =   1.02375
                        Viscosity (mPa s)  =   0.43835
                        Activity of water  =   0.996
                 Ionic strength (mol/kgw)  =   1.208e-01
                       Mass of water (kg)  =   1.000e+00
                 Total alkalinity (eq/kg)  =   7.936e-07
                         Temperature (°C)  =  65.00
                  Electrical balance (eq)  =  -1.962e-12
 Percent error, 100*(Cat-|An|)/(Cat+|An|)  =  -0.00
                               Iterations  =  10
                                  Total H  = 1.110124e+02
                                  Total O  = 5.586859e+01

----------------------------Distribution of species----------------------------

                                               Log       Log       Log    mole V
   Species          Molality    Activity  Molality  Activity     Gamma   cm³/mol

   OH-             1.005e-06   7.344e-07    -5.998    -6.134    -0.136     -3.51
   H+              2.114e-07   1.704e-07    -6.675    -6.768    -0.094      0.00
   H2O             5.551e+01   9.959e-01     1.744    -0.002     0.000     18.37
H(0)          6.822e-38
   H2              3.411e-38   3.512e-38   -37.467   -37.454     0.013     17.06
N(0)          7.936e-07
   N2              3.968e-07   4.080e-07    -6.401    -6.389     0.012     29.29
N(3)          5.101e-11
   NO2-            5.101e-11   3.677e-11   -10.292   -10.434    -0.142     26.10
N(5)          1.208e-01
   NO3-            1.208e-01   8.708e-02    -0.918    -1.060    -0.142     32.12
Na            1.208e-01
   Na+             1.208e-01   9.161e-02    -0.918    -1.038    -0.120      0.22
O(0)          1.984e-06
   O2              9.920e-07   1.020e-06    -6.003    -5.991     0.012     32.59

------------------------------Saturation indices-------------------------------

  Phase               SI** log IAP   log K(338 K,   1 atm)

  H2(g)           -34.33    -37.45   -3.13  H2
  H2O(g)           -0.61     -0.00    0.61  H2O
  N2(g)            -3.07     -6.39   -3.32  N2
  O2(g)            -2.91     -5.99   -3.08  O2

**For a gas, SI = log10(fugacity). Fugacity = pressure * phi / 1 atm.
  For ideal gases, phi = 1.

Reaction step 6.

Using solution 1.	
Using temperature 1.	
Using pressure 1.	
Using reaction 1.	

Reaction 1.	

	  2.514e-01 moles of the following reaction have been added:

	                 Relative
	Reactant            moles

	NaNO3                1.00000

	                 Relative
	Element             moles
	N                    1.00000
	Na                   1.00000
	O                    3.00000

-----------------------------Solution composition------------------------------

	Elements           Molality       Moles

	N                 2.514e-01   2.514e-01
	Na                2.514e-01   2.514e-01

----------------------------Description of solution----------------------------

                                       pH  =   6.820      Charge balance
                                       pe  =  10.289      Adjusted to redox equilibrium
      Specific Conductance (µS/cm,  65°C)  = 42486
                          Density (g/cm³)  =   0.99350
                               Volume (L)  =   1.02805
                        Viscosity (mPa s)  =   0.44386
                        Activity of water  =   0.991
                 Ionic strength (mol/kgw)  =   2.514e-01
                       Mass of water (kg)  =   1.000e+00
                 Total alkalinity (eq/kg)  =   1.036e-06
                         Temperature (°C)  =  65.00
                  Electrical balance (eq)  =  -4.708e-12
 Percent error, 100*(Cat-|An|)/(Cat+|An|)  =  -0.00
                               Iterations  =  10
                                  Total H  = 1.110124e+02
                                  Total O  = 5.626042e+01

----------------------------Distribution of species----------------------------

                                               Log       Log       Log    mole V
   Species          Molality    Activity  Molality  Activity     Gamma   cm³/mol

   OH-             1.231e-06   8.242e-07    -5.910    -6.084    -0.174     -3.16
   H+              1.948e-07   1.512e-07    -6.710    -6.820    -0.110      0.00
   H2O             5.551e+01   9.915e-01     1.744    -0.004     0.000     18.37
H(0)          5.673e-38
   H2              2.837e-38   3.014e-38   -37.547   -37.521     0.026     17.06
N(0)          1.036e-06
   N2              5.180e-07   5.489e-07    -6.286    -6.261     0.025     29.29
N(3)          9.153e-11
   NO2-            9.153e-11   5.993e-11   -10.038   -10.222    -0.184     26.32
N(5)          2.514e-01
   NO3-            2.514e-01   1.646e-01    -0.600    -0.784    -0.184     32.29
Na            2.514e-01
   Na+             2.514e-01   1.807e-01    -0.600    -0.743    -0.144      0.37
O(0)          2.590e-06
   O2              1.295e-06   1.372e-06    -5.888    -5.863     0.025     32.59

------------------------------Saturation indices-------------------------------

  Phase               SI** log IAP   log K(338 K,   1 atm)

  H2(g)           -34.39    -37.52   -3.13  H2
  H2O(g)           -0.61     -0.00    0.61  H2O
  N2(g)            -2.94     -6.26   -3.32  N2
  O2(g)            -2.78     -5.86   -3.08  O2

**For a gas, SI = log10(fugacity). Fugacity = pressure * phi / 1 atm.
  For ideal gases, phi = 1.

Reaction step 7.

Using solution 1.	
Using temperature 1.	
Using pressure 1.	
Using reaction 1.	

Reaction 1.	

	  5.010e-01 moles of the following reaction have been added:

	                 Relative
	Reactant            moles

	NaNO3                1.00000

	                 Relative
	Element             moles
	N                    1.00000
	Na                   1.00000
	O                    3.00000

-----------------------------Solution composition------------------------------

	Elements           Molality       Moles

	N                 5.010e-01   5.010e-01
	Na                5.010e-01   5.010e-01

----------------------------Description of solution----------------------------

                                       pH  =   6.864      Charge balance
                                       pe  =  10.277      Adjusted to redox equilibrium
      Specific Conductance (µS/cm,  65°C)  = 75968
                          Density (g/cm³)  =   1.00598
                               Volume (L)  =   1.03639
                        Viscosity (mPa s)  =   0.45480
                        Activity of water  =   0.983
                 Ionic strength (mol/kgw)  =   5.010e-01
                       Mass of water (kg)  =   1.000e+00
                 Total alkalinity (eq/kg)  =   1.295e-06
                         Temperature (°C)  =  65.00
                  Electrical balance (eq)  =  -2.878e-12
 Percent error, 100*(Cat-|An|)/(Cat+|An|)  =  -0.00
                               Iterations  =  10
                                  Total H  = 1.110124e+02
                                  Total O  = 5.700922e+01

----------------------------Distribution of species----------------------------

                                               Log       Log       Log    mole V
   Species          Molality    Activity  Molality  Activity     Gamma   cm³/mol

   OH-             1.477e-06   9.038e-07    -5.831    -6.044    -0.213     -2.60
   H+              1.821e-07   1.367e-07    -6.740    -6.864    -0.125      0.00
   H2O             5.551e+01   9.830e-01     1.744    -0.007     0.000     18.37
H(0)          4.602e-38
   H2              2.301e-38   2.597e-38   -37.638   -37.585     0.053     17.06
N(0)          1.295e-06
   N2              6.476e-07   7.267e-07    -6.189    -6.139     0.050     29.29
N(3)          1.585e-10
   NO2-            1.585e-10   9.374e-11    -9.800   -10.028    -0.228     26.60
N(5)          5.010e-01
   NO3-            5.010e-01   2.963e-01    -0.300    -0.528    -0.228     32.47
Na            5.010e-01
   Na+             5.010e-01   3.487e-01    -0.300    -0.458    -0.157      0.55
O(0)          3.238e-06
   O2              1.619e-06   1.817e-06    -5.791    -5.741     0.050     32.59

------------------------------Saturation indices-------------------------------

  Phase               SI** log IAP   log K(338 K,   1 atm)

  H2(g)           -34.46    -37.59   -3.13  H2
  H2O(g)           -0.62     -0.01    0.61  H2O
  N2(g)            -2.81     -6.14   -3.32  N2
  O2(g)            -2.66     -5.74   -3.08  O2

**For a gas, SI = log10(fugacity). Fugacity = pressure * phi / 1 atm.
  For ideal gases, phi = 1.

------------------
End of simulation.
------------------

-------------------------------------
Reading input data for simulation 10.
-------------------------------------

