WARNING: Database file from DATABASE keyword is used; command line argument ignored.
   Input file: Vm_salt
  Output file: Vm_salt.out
Database file: ../database/Amm.dat

------------------
Reading data base.
------------------

	SOLUTION_MASTER_SPECIES
	SOLUTION_SPECIES
	PHASES
	GAS_BINARY_PARAMETERS
	EXCHANGE_MASTER_SPECIES
	EXCHANGE_SPECIES
	SURFACE_MASTER_SPECIES
	SURFACE_SPECIES
	MEAN_GAMMAS
	RATES
	END
------------------------------------
Reading input data for simulation 1.
------------------------------------

	DATABASE ../database/Amm.dat
	SELECTED_OUTPUT 101
	    file                 Vm_salt_101.sel
	USER_PUNCH 101
	    headings Mu SC
	    start
	10 PUNCH STR_F$(MU, 20, 12)
	20 PUNCH STR_F$(SC, 20, 10)
	    end
	SOLUTION 1
	 pH 7 charge
	END
-------------------------------------------
Beginning of initial solution calculations.
-------------------------------------------

Initial solution 1.	

-----------------------------Solution composition------------------------------

	Elements           Molality       Moles

	Pure water     

----------------------------Description of solution----------------------------

                                       pH  =   6.997      Charge balance
                                       pe  =   4.000    
      Specific Conductance (µS/cm,  25°C)  = 0
                          Density (g/cm³)  =   0.99704
                               Volume (L)  =   1.00297
                        Viscosity (mPa s)  =   0.89002
                        Activity of water  =   1.000
                 Ionic strength (mol/kgw)  =   1.006e-07
                       Mass of water (kg)  =   1.000e+00
                 Total alkalinity (eq/kg)  =   3.040e-17
                         Temperature (°C)  =  25.00
                  Electrical balance (eq)  =  -3.040e-17
 Percent error, 100*(Cat-|An|)/(Cat+|An|)  =  -0.00
                               Iterations  =   2
                                  Total H  = 1.110124e+02
                                  Total O  = 5.550622e+01

----------------------------Distribution of species----------------------------

                                               Log       Log       Log    mole V
   Species          Molality    Activity  Molality  Activity     Gamma   cm³/mol

   OH-             1.006e-07   1.006e-07    -6.997    -6.997    -0.000     -4.14
   H+              1.006e-07   1.006e-07    -6.997    -6.997    -0.000      0.00
   H2O             5.551e+01   1.000e+00     1.744    -0.000     0.000     18.07
H(0)          1.433e-25
   H2              7.166e-26   7.166e-26   -25.145   -25.145     0.000     14.99
O(0)          0.000e+00
   O2              0.000e+00   0.000e+00   -42.073   -42.073     0.000     30.40

------------------------------Saturation indices-------------------------------

  Phase               SI** log IAP   log K(298 K,   1 atm)

  H2(g)           -22.05    -25.14   -3.10  H2
  H2O(g)           -1.50     -0.00    1.50  H2O
  O2(g)           -39.18    -42.07   -2.89  O2

**For a gas, SI = log10(fugacity). Fugacity = pressure * phi / 1 atm.
  For ideal gases, phi = 1.

------------------
End of simulation.
------------------

------------------------------------
Reading input data for simulation 2.
------------------------------------

	USE solution 1
	REACTION_TEMPERATURE
	 25.000000
	REACTION_PRESSURE
	 0.000000
	REACTION
	 HCl 1
	0 0.003345556 0.003509761 0.005804099 0.008152915  0.010050 0.010902557 0.019919104 0.020320 0.020722728 0.02917534 0.030010 0.039640309 0.040000 0.050500 0.057650 0.06183938 0.075390 0.079690 0.079931544 0.090713565 
	0.098980 0.100100 0.115900 0.124000 0.125650 0.138200 0.148360 0.148800 0.152170 0.198440 0.201350 0.217600 0.221790 0.230300 0.256600 0.258580 0.305100 0.317000 0.343670 0.376200 0.378892 0.378799 0.378888 0.400010 0.498090 0.564460 0.596830 0.608000 0.613160 0.634710 0.633689 0.696000 0.697270 0.793200 0.799170 0.892377 0.898500 0.900260 0.968600 0.968790 1.022200 1.154549 1.203100 1.276120 1.483900 1.618400 1.851100 1.954635 1.962320 2.095800 2.114800 2.195000 2.226783 2.264800 2.395500 2.457900 2.520000 2.764100 2.957400 3.014700 3.060917 3.191000 3.345673 3.852700 4.216778 4.216452 4.512961 4.631400 4.813464 4.813347 4.912400 5.116893 5.116862 5.316000 5.424050 5.423779 5.734175 5.734149 6.006400 6.048032 6.365700 6.625300 6.713663 6.734294 6.836000 6.963957 7.041466 7.372793 7.616000 7.708123 8.047887 8.391121 8.447000 8.739741 9.092376 9.294900 9.448106 9.810296
	USER_GRAPH
	 -headings HCl
	-axis_titles "(Ionic Strength)^0.5 / (mol/kg H2O)^0.5" "molar volume / (cm3/mol)"
	-axis_scale x_axis 0 3
	-axis_scale y_axis 14 32
	10 data 0, 18.03, 17.947, 17.955, 18.019, 18.003401, 18.053, 18.089, 18.151590, 18.104, 18.1, 18.144103, 18.128, 18.147104, 18.260570, 18.193491, 18.172, 18.291331, 18.251638, 18.221, 18.226, 18.293496, 18.360171, 18.172784, 18.401682, 18.425164, 18.400000, 18.375462, 18.421767, 18.420000, 18.441524, 18.551196, 18.351572, 18.520000, 18.528130, 18.509595, 18.540000, 18.580000, 18.569794, 18.630000, 18.620087, 18.644680, 18.706760, 18.620617, 18.639675, 18.709022, 18.752466, 18.771139, 18.739918, 18.796572, 18.809065, 18.800181, 18.824530, 18.848829, 18.872334, 18.907554, 18.920422, 18.929376, 18.966125, 18.966871, 18.949297, 18.997995, 19.038362, 19.041280, 19.127097, 19.158526, 19.205842, 19.278155, 19.266918, 19.279682, 19.347808, 19.347989, 19.369001, 19.338937, 19.385524, 19.408502, 19.421342, 19.382531, 19.461480, 19.475456, 19.547519, 19.560486, 19.604451, 19.618635, 19.722417, 19.824761, 19.823639, 19.863619, 19.868453, 19.915521, 19.922431, 19.912622, 19.978912, 19.972591, 20.022080, 20.004175, 20.065494, 20.064079, 20.049594, 20.081165, 20.113426, 20.155812, 20.162891, 20.205003, 20.202267, 20.233798, 20.229769, 20.244985, 20.285265, 20.285097, 20.325116, 20.361456, 20.402034, 20.376488, 20.436253, 20.473638, 20.464062, 20.509998, 20.547910,
	20 dim d(119)
	30 read d(1), d(2), d(3), d(4), d(5), d(6), d(7), d(8), d(9), d(10), d(11), d(12), d(13), d(14), d(15), d(16), d(17), d(18), d(19), d(20), d(21), d(22), d(23), d(24), d(25), d(26), d(27), d(28), d(29), d(30), d(31), d(32), d(33), d(34), d(35), d(36), d(37), d(38), d(39), d(40), d(41), d(42), d(43), d(44), d(45), d(46), d(47), d(48), d(49), d(50), d(51), d(52), d(53), d(54), d(55), d(56), d(57), d(58), d(59), d(60), d(61), d(62), d(63), d(64), d(65), d(66), d(67), d(68), d(69), d(70), d(71), d(72), d(73), d(74), d(75), d(76), d(77), d(78), d(79), d(80), d(81), d(82), d(83), d(84), d(85), d(86), d(87), d(88), d(89), d(90), d(91), d(92), d(93), d(94), d(95), d(96), d(97), d(98), d(99), d(100), d(101), d(102), d(103), d(104), d(105), d(106), d(107), d(108), d(109), d(110), d(111), d(112), d(113), d(114), d(115), d(116), d(117), d(118), d(119)
	40 if step_no = 1 then put(rho, 10)
	50 if step_no > 1 then Vmol = (1e3 + tot("Cl") * 36.461) / (tot("Cl") * rho) - 1e3 / (tot("Cl") * get(10))
	60 if step_no = 1 then dif = 0 else dif = Vmol - d(step_no)
	62 if tot("Cl") > 10 or tc > 200 then goto 150
	100 if step_no = 1 then goto 150
	102 Vmol = Vm("Cl-")
	110 plot_xy mu^0.5, d(step_no), symbol = Triangle, line_w = 0, color = Blue
	120 plot_xy mu^0.5, Vmol, symbol = None, color = Blue, line_width = 2
	122 if step_no > 3 then goto 150
	130 V0 = 18.02
	134 if step_no = 2 then plot_xy 0, V0, symbol = None, color = Blue, line_width = 2 else                        plot_xy 4, V0 + DH_Av * 4 * 0.5, symbol = None, color = Blue, line_width = 1
	150 end
	END
-----------------------------------------
Beginning of batch-reaction calculations.
-----------------------------------------

Reaction step 1.

Using solution 1.	
Using temperature 1.	
Using pressure 1.	
Using reaction 1.	

Reaction 1.	

	  0.000e+00 moles of the following reaction have been added:

	                 Relative
	Reactant            moles

	HCl                  1.00000

	                 Relative
	Element             moles
	Cl                   1.00000
	H                    1.00000

-----------------------------Solution composition------------------------------

	Elements           Molality       Moles

	Pure water     

----------------------------Description of solution----------------------------

                                       pH  =   6.997      Charge balance
                                       pe  =   4.000      Adjusted to redox equilibrium
      Specific Conductance (µS/cm,  25°C)  = 0
                          Density (g/cm³)  =   0.99700
                               Volume (L)  =   1.00301
                        Viscosity (mPa s)  =   0.89004
                        Activity of water  =   1.000
                 Ionic strength (mol/kgw)  =   1.006e-07
                       Mass of water (kg)  =   1.000e+00
                 Total alkalinity (eq/kg)  =   3.146e-17
                         Temperature (°C)  =  25.00
                           Pressure (atm)  =  0.03
                  Electrical balance (eq)  =  -3.146e-17
 Percent error, 100*(Cat-|An|)/(Cat+|An|)  =  -0.00
                               Iterations  =   0
                                  Total H  = 1.110124e+02
                                  Total O  = 5.550622e+01

----------------------------Distribution of species----------------------------

                                               Log       Log       Log    mole V
   Species          Molality    Activity  Molality  Activity     Gamma   cm³/mol

   OH-             1.006e-07   1.006e-07    -6.997    -6.997    -0.000     -4.14
   H+              1.006e-07   1.006e-07    -6.997    -6.997    -0.000      0.00
   H2O             5.551e+01   1.000e+00     1.744    -0.000     0.000     18.07
H(0)          1.433e-25
   H2              7.166e-26   7.166e-26   -25.145   -25.145     0.000     14.99
O(0)          0.000e+00
   O2              0.000e+00   0.000e+00   -42.073   -42.073     0.000     30.40

------------------------------Saturation indices-------------------------------

  Phase               SI** log IAP   log K(298 K,   0 atm)

  H2(g)           -22.05    -25.14   -3.10  H2
  H2O(g)           -1.50     -0.00    1.50  H2O
  O2(g)           -39.18    -42.07   -2.89  O2

**For a gas, SI = log10(fugacity). Fugacity = pressure * phi / 1 atm.
  For ideal gases, phi = 1.

Reaction step 2.

Using solution 1.	
Using temperature 1.	
Using pressure 1.	
Using reaction 1.	

Reaction 1.	

	  3.346e-03 moles of the following reaction have been added:

	                 Relative
	Reactant            moles

	HCl                  1.00000

	                 Relative
	Element             moles
	Cl                   1.00000
	H                    1.00000

-----------------------------Solution composition------------------------------

	Elements           Molality       Moles

	Cl                3.346e-03   3.346e-03

----------------------------Description of solution----------------------------

                                       pH  =   2.501      Charge balance
                                       pe  =  15.083      Adjusted to redox equilibrium
      Specific Conductance (µS/cm,  25°C)  = 1389
                          Density (g/cm³)  =   0.99706
                               Volume (L)  =   1.00307
                        Viscosity (mPa s)  =   0.89030
                        Activity of water  =   1.000
                 Ionic strength (mol/kgw)  =   3.342e-03
                       Mass of water (kg)  =   1.000e+00
                 Total alkalinity (eq/kg)  =  -3.346e-03
                         Temperature (°C)  =  25.00
                           Pressure (atm)  =  0.03
                  Electrical balance (eq)  =   2.983e-11
 Percent error, 100*(Cat-|An|)/(Cat+|An|)  =   0.00
                               Iterations  =  13
                                  Total H  = 1.110158e+02
                                  Total O  = 5.550622e+01

----------------------------Distribution of species----------------------------

                                               Log       Log       Log    mole V
   Species          Molality    Activity  Molality  Activity     Gamma   cm³/mol

   H+              3.342e-03   3.154e-03    -2.476    -2.501    -0.025      0.00
   OH-             3.420e-12   3.209e-12   -11.466   -11.494    -0.028     -4.08
   H2O             5.551e+01   9.999e-01     1.744    -0.000     0.000     18.07
Cl            3.346e-03
   Cl-             3.342e-03   3.137e-03    -2.476    -2.504    -0.028     18.10
   HCl             3.397e-06   3.408e-06    -5.469    -5.467     0.001     20.36
H(0)          9.608e-39
   H2              4.804e-39   4.808e-39   -38.318   -38.318     0.000     14.99
O(0)          3.751e-16
   O2              1.875e-16   1.877e-16   -15.727   -15.727     0.000     30.40

------------------------------Saturation indices-------------------------------

  Phase               SI** log IAP   log K(298 K,   0 atm)

  H2(g)           -35.22    -38.32   -3.10  H2
  H2O(g)           -1.50     -0.00    1.50  H2O
  O2(g)           -12.83    -15.73   -2.89  O2

**For a gas, SI = log10(fugacity). Fugacity = pressure * phi / 1 atm.
  For ideal gases, phi = 1.

Reaction step 3.

Using solution 1.	
Using temperature 1.	
Using pressure 1.	
Using reaction 1.	

Reaction 1.	

	  3.510e-03 moles of the following reaction have been added:

	                 Relative
	Reactant            moles

	HCl                  1.00000

	                 Relative
	Element             moles
	Cl                   1.00000
	H                    1.00000

-----------------------------Solution composition------------------------------

	Elements           Molality       Moles

	Cl                3.510e-03   3.510e-03

----------------------------Description of solution----------------------------

                                       pH  =   2.481      Charge balance
                                       pe  =   3.306      Adjusted to redox equilibrium
      Specific Conductance (µS/cm,  25°C)  = 1457
                          Density (g/cm³)  =   0.99706
                               Volume (L)  =   1.00307
                        Viscosity (mPa s)  =   0.89031
                        Activity of water  =   1.000
                 Ionic strength (mol/kgw)  =   3.506e-03
                       Mass of water (kg)  =   1.000e+00
                 Total alkalinity (eq/kg)  =  -3.510e-03
                         Temperature (°C)  =  25.00
                           Pressure (atm)  =  0.03
                  Electrical balance (eq)  =   6.484e-14
 Percent error, 100*(Cat-|An|)/(Cat+|An|)  =   0.00
                               Iterations  =  12
                                  Total H  = 1.110159e+02
                                  Total O  = 5.550622e+01

----------------------------Distribution of species----------------------------

                                               Log       Log       Log    mole V
   Species          Molality    Activity  Molality  Activity     Gamma   cm³/mol

   H+              3.506e-03   3.305e-03    -2.455    -2.481    -0.026      0.00
   OH-             3.269e-12   3.063e-12   -11.486   -11.514    -0.028     -4.08
   H2O             5.551e+01   9.999e-01     1.744    -0.000     0.000     18.07
Cl            3.510e-03
   Cl-             3.506e-03   3.286e-03    -2.455    -2.483    -0.028     18.10
   HCl             3.728e-06   3.741e-06    -5.429    -5.427     0.001     20.36
H(0)          3.781e-15
   H2              1.891e-15   1.892e-15   -14.723   -14.723     0.000     14.99
O(0)          0.000e+00
   O2              0.000e+00   0.000e+00   -62.917   -62.917     0.000     30.40

------------------------------Saturation indices-------------------------------

  Phase               SI** log IAP   log K(298 K,   0 atm)

  H2(g)           -11.62    -14.72   -3.10  H2
  H2O(g)           -1.50     -0.00    1.50  H2O
  O2(g)           -60.02    -62.92   -2.89  O2

**For a gas, SI = log10(fugacity). Fugacity = pressure * phi / 1 atm.
  For ideal gases, phi = 1.

Reaction step 4.

Using solution 1.	
Using temperature 1.	
Using pressure 1.	
Using reaction 1.	

Reaction 1.	

	  5.804e-03 moles of the following reaction have been added:

	                 Relative
	Reactant            moles

	HCl                  1.00000

	                 Relative
	Element             moles
	Cl                   1.00000
	H                    1.00000

-----------------------------Solution composition------------------------------

	Elements           Molality       Moles

	Cl                5.804e-03   5.804e-03

----------------------------Description of solution----------------------------

                                       pH  =   2.269      Charge balance
                                       pe  =   3.619      Adjusted to redox equilibrium
      Specific Conductance (µS/cm,  25°C)  = 2397
                          Density (g/cm³)  =   0.99711
                               Volume (L)  =   1.00311
                        Viscosity (mPa s)  =   0.89044
                        Activity of water  =   1.000
                 Ionic strength (mol/kgw)  =   5.794e-03
                       Mass of water (kg)  =   1.000e+00
                 Total alkalinity (eq/kg)  =  -5.804e-03
                         Temperature (°C)  =  25.00
                           Pressure (atm)  =  0.03
                  Electrical balance (eq)  =  -2.745e-17
 Percent error, 100*(Cat-|An|)/(Cat+|An|)  =  -0.00
                               Iterations  =  11
                                  Total H  = 1.110182e+02
                                  Total O  = 5.550622e+01

----------------------------Distribution of species----------------------------

                                               Log       Log       Log    mole V
   Species          Molality    Activity  Molality  Activity     Gamma   cm³/mol

   H+              5.794e-03   5.386e-03    -2.237    -2.269    -0.032      0.00
   OH-             2.040e-12   1.879e-12   -11.690   -11.726    -0.036     -4.06
   H2O             5.551e+01   9.998e-01     1.744    -0.000     0.000     18.07
Cl            5.804e-03
   Cl-             5.794e-03   5.340e-03    -2.237    -2.272    -0.035     18.12
   HCl             9.852e-06   9.908e-06    -5.006    -5.004     0.002     20.36
H(0)          2.369e-15
   H2              1.184e-15   1.186e-15   -14.926   -14.926     0.001     14.99
O(0)          0.000e+00
   O2              0.000e+00   0.000e+00   -62.512   -62.511     0.001     30.40

------------------------------Saturation indices-------------------------------

  Phase               SI** log IAP   log K(298 K,   0 atm)

  H2(g)           -11.83    -14.93   -3.10  H2
  H2O(g)           -1.50     -0.00    1.50  H2O
  O2(g)           -59.62    -62.51   -2.89  O2

**For a gas, SI = log10(fugacity). Fugacity = pressure * phi / 1 atm.
  For ideal gases, phi = 1.

Reaction step 5.

Using solution 1.	
Using temperature 1.	
Using pressure 1.	
Using reaction 1.	

Reaction 1.	

	  8.153e-03 moles of the following reaction have been added:

	                 Relative
	Reactant            moles

	HCl                  1.00000

	                 Relative
	Element             moles
	Cl                   1.00000
	H                    1.00000

-----------------------------Solution composition------------------------------

	Elements           Molality       Moles

	Cl                8.153e-03   8.153e-03

----------------------------Description of solution----------------------------

                                       pH  =   2.126      Charge balance
                                       pe  =  15.621      Adjusted to redox equilibrium
      Specific Conductance (µS/cm,  25°C)  = 3353
                          Density (g/cm³)  =   0.99715
                               Volume (L)  =   1.00316
                        Viscosity (mPa s)  =   0.89057
                        Activity of water  =   1.000
                 Ionic strength (mol/kgw)  =   8.134e-03
                       Mass of water (kg)  =   1.000e+00
                 Total alkalinity (eq/kg)  =  -8.153e-03
                         Temperature (°C)  =  25.00
                           Pressure (atm)  =  0.03
                  Electrical balance (eq)  =  -2.578e-17
 Percent error, 100*(Cat-|An|)/(Cat+|An|)  =  -0.00
                               Iterations  =  13
                                  Total H  = 1.110206e+02
                                  Total O  = 5.550622e+01

----------------------------Distribution of species----------------------------

                                               Log       Log       Log    mole V
   Species          Molality    Activity  Molality  Activity     Gamma   cm³/mol

   H+              8.134e-03   7.481e-03    -2.090    -2.126    -0.036      0.00
   OH-             1.489e-12   1.353e-12   -11.827   -11.869    -0.042     -4.05
   H2O             5.551e+01   9.997e-01     1.744    -0.000     0.000     18.07
Cl            8.153e-03
   Cl-             8.134e-03   7.395e-03    -2.090    -2.131    -0.041     18.13
   HCl             1.891e-05   1.906e-05    -4.723    -4.720     0.003     20.36
H(0)          4.523e-39
   H2              2.261e-39   2.266e-39   -38.646   -38.645     0.001     14.99
O(0)          1.687e-15
   O2              8.433e-16   8.448e-16   -15.074   -15.073     0.001     30.40

------------------------------Saturation indices-------------------------------

  Phase               SI** log IAP   log K(298 K,   0 atm)

  H2(g)           -35.55    -38.64   -3.10  H2
  H2O(g)           -1.50     -0.00    1.50  H2O
  O2(g)           -12.18    -15.07   -2.89  O2

**For a gas, SI = log10(fugacity). Fugacity = pressure * phi / 1 atm.
  For ideal gases, phi = 1.

Reaction step 6.

Using solution 1.	
Using temperature 1.	
Using pressure 1.	
Using reaction 1.	

Reaction 1.	

	  1.005e-02 moles of the following reaction have been added:

	                 Relative
	Reactant            moles

	HCl                  1.00000

	                 Relative
	Element             moles
	Cl                   1.00000
	H                    1.00000

-----------------------------Solution composition------------------------------

	Elements           Molality       Moles

	Cl                1.005e-02   1.005e-02

----------------------------Description of solution----------------------------

                                       pH  =   2.038      Charge balance
                                       pe  =   2.860      Adjusted to redox equilibrium
      Specific Conductance (µS/cm,  25°C)  = 4122
                          Density (g/cm³)  =   0.99718
                               Volume (L)  =   1.00319
                        Viscosity (mPa s)  =   0.89067
                        Activity of water  =   1.000
                 Ionic strength (mol/kgw)  =   1.002e-02
                       Mass of water (kg)  =   1.000e+00
                 Total alkalinity (eq/kg)  =  -1.005e-02
                         Temperature (°C)  =  25.00
                           Pressure (atm)  =  0.03
                  Electrical balance (eq)  =   2.002e-11
 Percent error, 100*(Cat-|An|)/(Cat+|An|)  =   0.00
                               Iterations  =  11
                                  Total H  = 1.110225e+02
                                  Total O  = 5.550622e+01

----------------------------Distribution of species----------------------------

                                               Log       Log       Log    mole V
   Species          Molality    Activity  Molality  Activity     Gamma   cm³/mol

   H+              1.002e-02   9.153e-03    -1.999    -2.038    -0.039      0.00
   OH-             1.228e-12   1.105e-12   -11.911   -11.956    -0.046     -4.04
   H2O             5.551e+01   9.997e-01     1.744    -0.000     0.000     18.07
Cl            1.005e-02
   Cl-             1.002e-02   9.026e-03    -1.999    -2.044    -0.045     18.14
   HCl             2.818e-05   2.846e-05    -4.550    -4.546     0.004     20.36
H(0)          2.253e-13
   H2              1.126e-13   1.129e-13   -12.948   -12.947     0.001     14.99
O(0)          0.000e+00
   O2              0.000e+00   0.000e+00   -66.469   -66.468     0.001     30.40

------------------------------Saturation indices-------------------------------

  Phase               SI** log IAP   log K(298 K,   0 atm)

  H2(g)            -9.85    -12.95   -3.10  H2
  H2O(g)           -1.50     -0.00    1.50  H2O
  O2(g)           -63.58    -66.47   -2.89  O2

**For a gas, SI = log10(fugacity). Fugacity = pressure * phi / 1 atm.
  For ideal gases, phi = 1.

Reaction step 7.

Using solution 1.	
Using temperature 1.	
Using pressure 1.	
Using reaction 1.	

Reaction 1.	

	  1.090e-02 moles of the following reaction have been added:

	                 Relative
	Reactant            moles

	HCl                  1.00000

	                 Relative
	Element             moles
	Cl                   1.00000
	H                    1.00000

-----------------------------Solution composition------------------------------

	Elements           Molality       Moles

	Cl                1.090e-02   1.090e-02

----------------------------Description of solution----------------------------

                                       pH  =   2.004      Charge balance
                                       pe  =  15.799      Adjusted to redox equilibrium
      Specific Conductance (µS/cm,  25°C)  = 4467
                          Density (g/cm³)  =   0.99720
                               Volume (L)  =   1.00321
                        Viscosity (mPa s)  =   0.89072
                        Activity of water  =   1.000
                 Ionic strength (mol/kgw)  =   1.087e-02
                       Mass of water (kg)  =   1.000e+00
                 Total alkalinity (eq/kg)  =  -1.090e-02
                         Temperature (°C)  =  25.00
                           Pressure (atm)  =  0.03
                  Electrical balance (eq)  =   1.153e-11
 Percent error, 100*(Cat-|An|)/(Cat+|An|)  =   0.00
                               Iterations  =  13
                                  Total H  = 1.110233e+02
                                  Total O  = 5.550622e+01

----------------------------Distribution of species----------------------------

                                               Log       Log       Log    mole V
   Species          Molality    Activity  Molality  Activity     Gamma   cm³/mol

   H+              1.087e-02   9.898e-03    -1.964    -2.004    -0.041      0.00
   OH-             1.140e-12   1.022e-12   -11.943   -11.990    -0.047     -4.03
   H2O             5.551e+01   9.996e-01     1.744    -0.000     0.000     18.07
Cl            1.090e-02
   Cl-             1.087e-02   9.752e-03    -1.964    -2.011    -0.047     18.14
   HCl             3.290e-05   3.325e-05    -4.483    -4.478     0.005     20.36
H(0)          3.490e-39
   H2              1.745e-39   1.749e-39   -38.758   -38.757     0.001     14.99
O(0)          2.827e-15
   O2              1.413e-15   1.417e-15   -14.850   -14.849     0.001     30.40

------------------------------Saturation indices-------------------------------

  Phase               SI** log IAP   log K(298 K,   0 atm)

  H2(g)           -35.66    -38.76   -3.10  H2
  H2O(g)           -1.50     -0.00    1.50  H2O
  O2(g)           -11.96    -14.85   -2.89  O2

**For a gas, SI = log10(fugacity). Fugacity = pressure * phi / 1 atm.
  For ideal gases, phi = 1.

Reaction step 8.

Using solution 1.	
Using temperature 1.	
Using pressure 1.	
Using reaction 1.	

Reaction 1.	

	  1.992e-02 moles of the following reaction have been added:

	                 Relative
	Reactant            moles

	HCl                  1.00000

	                 Relative
	Element             moles
	Cl                   1.00000
	H                    1.00000

-----------------------------Solution composition------------------------------

	Elements           Molality       Moles

	Cl                1.992e-02   1.992e-02

----------------------------Description of solution----------------------------

                                       pH  =   1.754      Charge balance
                                       pe  =  16.013      Adjusted to redox equilibrium
      Specific Conductance (µS/cm,  25°C)  = 8081
                          Density (g/cm³)  =   0.99736
                               Volume (L)  =   1.00337
                        Viscosity (mPa s)  =   0.89119
                        Activity of water  =   0.999
                 Ionic strength (mol/kgw)  =   1.982e-02
                       Mass of water (kg)  =   1.000e+00
                 Total alkalinity (eq/kg)  =  -1.992e-02
                         Temperature (°C)  =  25.00
                           Pressure (atm)  =  0.03
                  Electrical balance (eq)  =   1.775e-11
 Percent error, 100*(Cat-|An|)/(Cat+|An|)  =   0.00
                               Iterations  =  14
                                  Total H  = 1.110324e+02
                                  Total O  = 5.550622e+01

----------------------------Distribution of species----------------------------

                                               Log       Log       Log    mole V
   Species          Molality    Activity  Molality  Activity     Gamma   cm³/mol

   H+              1.982e-02   1.763e-02    -1.703    -1.754    -0.051      0.00
   OH-             6.613e-13   5.736e-13   -12.180   -12.241    -0.062     -3.99
   H2O             5.551e+01   9.993e-01     1.744    -0.000     0.000     18.07
Cl            1.992e-02
   Cl-             1.982e-02   1.721e-02    -1.703    -1.764    -0.061     18.18
   HCl             1.026e-04   1.046e-04    -3.989    -3.981     0.008     20.36
H(0)          4.133e-39
   H2              2.067e-39   2.077e-39   -38.685   -38.683     0.002     14.99
O(0)          2.001e-15
   O2              1.000e-15   1.005e-15   -15.000   -14.998     0.002     30.40

------------------------------Saturation indices-------------------------------

  Phase               SI** log IAP   log K(298 K,   0 atm)

  H2(g)           -35.58    -38.68   -3.10  H2
  H2O(g)           -1.50     -0.00    1.50  H2O
  O2(g)           -12.11    -15.00   -2.89  O2

**For a gas, SI = log10(fugacity). Fugacity = pressure * phi / 1 atm.
  For ideal gases, phi = 1.

Reaction step 9.

Using solution 1.	
Using temperature 1.	
Using pressure 1.	
Using reaction 1.	

Reaction 1.	

	  2.032e-02 moles of the following reaction have been added:

	                 Relative
	Reactant            moles

	HCl                  1.00000

	                 Relative
	Element             moles
	Cl                   1.00000
	H                    1.00000

-----------------------------Solution composition------------------------------

	Elements           Molality       Moles

	Cl                2.032e-02   2.032e-02

----------------------------Description of solution----------------------------

                                       pH  =   1.745      Charge balance
                                       pe  =  15.938      Adjusted to redox equilibrium
      Specific Conductance (µS/cm,  25°C)  = 8241
                          Density (g/cm³)  =   0.99737
                               Volume (L)  =   1.00338
                        Viscosity (mPa s)  =   0.89121
                        Activity of water  =   0.999
                 Ionic strength (mol/kgw)  =   2.021e-02
                       Mass of water (kg)  =   1.000e+00
                 Total alkalinity (eq/kg)  =  -2.032e-02
                         Temperature (°C)  =  25.00
                           Pressure (atm)  =  0.03
                  Electrical balance (eq)  =  -2.576e-17
 Percent error, 100*(Cat-|An|)/(Cat+|An|)  =  -0.00
                               Iterations  =  14
                                  Total H  = 1.110328e+02
                                  Total O  = 5.550622e+01

----------------------------Distribution of species----------------------------

                                               Log       Log       Log    mole V
   Species          Molality    Activity  Molality  Activity     Gamma   cm³/mol

   H+              2.021e-02   1.797e-02    -1.694    -1.745    -0.051      0.00
   OH-             6.497e-13   5.628e-13   -12.187   -12.250    -0.062     -3.99
   H2O             5.551e+01   9.993e-01     1.744    -0.000     0.000     18.07
Cl            2.032e-02
   Cl-             2.021e-02   1.754e-02    -1.694    -1.756    -0.062     18.18
   HCl             1.064e-04   1.086e-04    -3.973    -3.964     0.009     20.36
H(0)          6.067e-39
   H2              3.034e-39   3.049e-39   -38.518   -38.516     0.002     14.99
O(0)          9.282e-16
   O2              4.641e-16   4.663e-16   -15.333   -15.331     0.002     30.40

------------------------------Saturation indices-------------------------------

  Phase               SI** log IAP   log K(298 K,   0 atm)

  H2(g)           -35.42    -38.52   -3.10  H2
  H2O(g)           -1.50     -0.00    1.50  H2O
  O2(g)           -12.44    -15.33   -2.89  O2

**For a gas, SI = log10(fugacity). Fugacity = pressure * phi / 1 atm.
  For ideal gases, phi = 1.

Reaction step 10.

Using solution 1.	
Using temperature 1.	
Using pressure 1.	
Using reaction 1.	

Reaction 1.	

	  2.072e-02 moles of the following reaction have been added:

	                 Relative
	Reactant            moles

	HCl                  1.00000

	                 Relative
	Element             moles
	Cl                   1.00000
	H                    1.00000

-----------------------------Solution composition------------------------------

	Elements           Molality       Moles

	Cl                2.072e-02   2.072e-02

----------------------------Description of solution----------------------------

                                       pH  =   1.737      Charge balance
                                       pe  =  16.040      Adjusted to redox equilibrium
      Specific Conductance (µS/cm,  25°C)  = 8401
                          Density (g/cm³)  =   0.99738
                               Volume (L)  =   1.00339
                        Viscosity (mPa s)  =   0.89123
                        Activity of water  =   0.999
                 Ionic strength (mol/kgw)  =   2.061e-02
                       Mass of water (kg)  =   1.000e+00
                 Total alkalinity (eq/kg)  =  -2.072e-02
                         Temperature (°C)  =  25.00
                           Pressure (atm)  =  0.03
                  Electrical balance (eq)  =   8.741e-11
 Percent error, 100*(Cat-|An|)/(Cat+|An|)  =   0.00
                               Iterations  =  14
                                  Total H  = 1.110332e+02
                                  Total O  = 5.550622e+01

----------------------------Distribution of species----------------------------

                                               Log       Log       Log    mole V
   Species          Molality    Activity  Molality  Activity     Gamma   cm³/mol

   H+              2.061e-02   1.831e-02    -1.686    -1.737    -0.051      0.00
   OH-             6.384e-13   5.524e-13   -12.195   -12.258    -0.063     -3.98
   H2O             5.551e+01   9.993e-01     1.744    -0.000     0.000     18.07
Cl            2.072e-02
   Cl-             2.061e-02   1.786e-02    -1.686    -1.748    -0.062     18.18
   HCl             1.104e-04   1.127e-04    -3.957    -3.948     0.009     20.36
H(0)          3.922e-39
   H2              1.961e-39   1.971e-39   -38.707   -38.705     0.002     14.99
O(0)          2.220e-15
   O2              1.110e-15   1.116e-15   -14.955   -14.953     0.002     30.40

------------------------------Saturation indices-------------------------------

  Phase               SI** log IAP   log K(298 K,   0 atm)

  H2(g)           -35.61    -38.71   -3.10  H2
  H2O(g)           -1.50     -0.00    1.50  H2O
  O2(g)           -12.06    -14.95   -2.89  O2

**For a gas, SI = log10(fugacity). Fugacity = pressure * phi / 1 atm.
  For ideal gases, phi = 1.

Reaction step 11.

Using solution 1.	
Using temperature 1.	
Using pressure 1.	
Using reaction 1.	

Reaction 1.	

	  2.918e-02 moles of the following reaction have been added:

	                 Relative
	Reactant            moles

	HCl                  1.00000

	                 Relative
	Element             moles
	Cl                   1.00000
	H                    1.00000

-----------------------------Solution composition------------------------------

	Elements           Molality       Moles

	Cl                2.918e-02   2.918e-02

----------------------------Description of solution----------------------------

                                       pH  =   1.596      Charge balance
                                       pe  =  16.199      Adjusted to redox equilibrium
      Specific Conductance (µS/cm,  25°C)  = 11746
                          Density (g/cm³)  =   0.99753
                               Volume (L)  =   1.00354
                        Viscosity (mPa s)  =   0.89167
                        Activity of water  =   0.999
                 Ionic strength (mol/kgw)  =   2.897e-02
                       Mass of water (kg)  =   1.000e+00
                 Total alkalinity (eq/kg)  =  -2.918e-02
                         Temperature (°C)  =  25.00
                           Pressure (atm)  =  0.03
                  Electrical balance (eq)  =   6.986e-12
 Percent error, 100*(Cat-|An|)/(Cat+|An|)  =   0.00
                               Iterations  =  15
                                  Total H  = 1.110416e+02
                                  Total O  = 5.550622e+01

----------------------------Distribution of species----------------------------

                                               Log       Log       Log    mole V
   Species          Molality    Activity  Molality  Activity     Gamma   cm³/mol

   H+              2.897e-02   2.536e-02    -1.538    -1.596    -0.058      0.00
   OH-             4.713e-13   3.987e-13   -12.327   -12.399    -0.073     -3.95
   H2O             5.551e+01   9.990e-01     1.744    -0.000     0.000     18.07
Cl            2.918e-02
   Cl-             2.897e-02   2.456e-02    -1.538    -1.610    -0.072     18.20
   HCl             2.086e-04   2.146e-04    -3.681    -3.668     0.012     20.36
H(0)          3.615e-39
   H2              1.807e-39   1.820e-39   -38.743   -38.740     0.003     14.99
O(0)          2.597e-15
   O2              1.299e-15   1.307e-15   -14.886   -14.884     0.003     30.40

------------------------------Saturation indices-------------------------------

  Phase               SI** log IAP   log K(298 K,   0 atm)

  H2(g)           -35.64    -38.74   -3.10  H2
  H2O(g)           -1.50     -0.00    1.50  H2O
  O2(g)           -11.99    -14.88   -2.89  O2

**For a gas, SI = log10(fugacity). Fugacity = pressure * phi / 1 atm.
  For ideal gases, phi = 1.

Reaction step 12.

Using solution 1.	
Using temperature 1.	
Using pressure 1.	
Using reaction 1.	

Reaction 1.	

	  3.001e-02 moles of the following reaction have been added:

	                 Relative
	Reactant            moles

	HCl                  1.00000

	                 Relative
	Element             moles
	Cl                   1.00000
	H                    1.00000

-----------------------------Solution composition------------------------------

	Elements           Molality       Moles

	Cl                3.001e-02   3.001e-02

----------------------------Description of solution----------------------------

                                       pH  =   1.584      Charge balance
                                       pe  =   3.962      Adjusted to redox equilibrium
      Specific Conductance (µS/cm,  25°C)  = 12075
                          Density (g/cm³)  =   0.99755
                               Volume (L)  =   1.00356
                        Viscosity (mPa s)  =   0.89171
                        Activity of water  =   0.999
                 Ionic strength (mol/kgw)  =   2.979e-02
                       Mass of water (kg)  =   1.000e+00
                 Total alkalinity (eq/kg)  =  -3.001e-02
                         Temperature (°C)  =  25.00
                           Pressure (atm)  =  0.03
                  Electrical balance (eq)  =   2.024e-14
 Percent error, 100*(Cat-|An|)/(Cat+|An|)  =   0.00
                               Iterations  =  12
                                  Total H  = 1.110424e+02
                                  Total O  = 5.550622e+01

----------------------------Distribution of species----------------------------

                                               Log       Log       Log    mole V
   Species          Molality    Activity  Molality  Activity     Gamma   cm³/mol

   H+              2.979e-02   2.605e-02    -1.526    -1.584    -0.058      0.00
   OH-             4.597e-13   3.882e-13   -12.338   -12.411    -0.073     -3.95
   H2O             5.551e+01   9.990e-01     1.744    -0.000     0.000     18.07
Cl            3.001e-02
   Cl-             2.979e-02   2.521e-02    -1.526    -1.598    -0.073     18.21
   HCl             2.197e-04   2.262e-04    -3.658    -3.645     0.013     20.36
H(0)          1.139e-14
   H2              5.694e-15   5.735e-15   -14.245   -14.241     0.003     14.99
O(0)          0.000e+00
   O2              0.000e+00   0.000e+00   -63.883   -63.880     0.003     30.40

------------------------------Saturation indices-------------------------------

  Phase               SI** log IAP   log K(298 K,   0 atm)

  H2(g)           -11.14    -14.24   -3.10  H2
  H2O(g)           -1.50     -0.00    1.50  H2O
  O2(g)           -60.99    -63.88   -2.89  O2

**For a gas, SI = log10(fugacity). Fugacity = pressure * phi / 1 atm.
  For ideal gases, phi = 1.

Reaction step 13.

Using solution 1.	
Using temperature 1.	
Using pressure 1.	
Using reaction 1.	

Reaction 1.	

	  3.964e-02 moles of the following reaction have been added:

	                 Relative
	Reactant            moles

	HCl                  1.00000

	                 Relative
	Element             moles
	Cl                   1.00000
	H                    1.00000

-----------------------------Solution composition------------------------------

	Elements           Molality       Moles

	Cl                3.964e-02   3.964e-02

----------------------------Description of solution----------------------------

                                       pH  =   1.470      Charge balance
                                       pe  =   4.161      Adjusted to redox equilibrium
      Specific Conductance (µS/cm,  25°C)  = 15846
                          Density (g/cm³)  =   0.99772
                               Volume (L)  =   1.00373
                        Viscosity (mPa s)  =   0.89220
                        Activity of water  =   0.999
                 Ionic strength (mol/kgw)  =   3.927e-02
                       Mass of water (kg)  =   1.000e+00
                 Total alkalinity (eq/kg)  =  -3.964e-02
                         Temperature (°C)  =  25.00
                           Pressure (atm)  =  0.03
                  Electrical balance (eq)  =   3.665e-12
 Percent error, 100*(Cat-|An|)/(Cat+|An|)  =   0.00
                               Iterations  =  13
                                  Total H  = 1.110521e+02
                                  Total O  = 5.550622e+01

----------------------------Distribution of species----------------------------

                                               Log       Log       Log    mole V
   Species          Molality    Activity  Molality  Activity     Gamma   cm³/mol

   H+              3.927e-02   3.391e-02    -1.406    -1.470    -0.064      0.00
   OH-             3.603e-13   2.981e-13   -12.443   -12.526    -0.082     -3.91
   H2O             5.551e+01   9.987e-01     1.744    -0.001     0.000     18.07
Cl            3.964e-02
   Cl-             3.927e-02   3.258e-02    -1.406    -1.487    -0.081     18.23
   HCl             3.663e-04   3.807e-04    -3.436    -3.419     0.017     20.36
H(0)          7.689e-15
   H2              3.844e-15   3.881e-15   -14.415   -14.411     0.004     14.99
O(0)          0.000e+00
   O2              0.000e+00   0.000e+00   -63.546   -63.542     0.004     30.40

------------------------------Saturation indices-------------------------------

  Phase               SI** log IAP   log K(298 K,   0 atm)

  H2(g)           -11.31    -14.41   -3.10  H2
  H2O(g)           -1.50     -0.00    1.50  H2O
  O2(g)           -60.65    -63.54   -2.89  O2

**For a gas, SI = log10(fugacity). Fugacity = pressure * phi / 1 atm.
  For ideal gases, phi = 1.

Reaction step 14.

Using solution 1.	
Using temperature 1.	
Using pressure 1.	
Using reaction 1.	

Reaction 1.	

	  4.000e-02 moles of the following reaction have been added:

	                 Relative
	Reactant            moles

	HCl                  1.00000

	                 Relative
	Element             moles
	Cl                   1.00000
	H                    1.00000

-----------------------------Solution composition------------------------------

	Elements           Molality       Moles

	Cl                4.000e-02   4.000e-02

----------------------------Description of solution----------------------------

                                       pH  =   1.466      Charge balance
                                       pe  =   4.095      Adjusted to redox equilibrium
      Specific Conductance (µS/cm,  25°C)  = 15986
                          Density (g/cm³)  =   0.99773
                               Volume (L)  =   1.00374
                        Viscosity (mPa s)  =   0.89222
                        Activity of water  =   0.999
                 Ionic strength (mol/kgw)  =   3.963e-02
                       Mass of water (kg)  =   1.000e+00
                 Total alkalinity (eq/kg)  =  -4.000e-02
                         Temperature (°C)  =  25.00
                           Pressure (atm)  =  0.03
                  Electrical balance (eq)  =   1.601e-12
 Percent error, 100*(Cat-|An|)/(Cat+|An|)  =   0.00
                               Iterations  =  13
                                  Total H  = 1.110524e+02
                                  Total O  = 5.550622e+01

----------------------------Distribution of species----------------------------

                                               Log       Log       Log    mole V
   Species          Molality    Activity  Molality  Activity     Gamma   cm³/mol

   H+              3.963e-02   3.420e-02    -1.402    -1.466    -0.064      0.00
   OH-             3.574e-13   2.955e-13   -12.447   -12.529    -0.083     -3.91
   H2O             5.551e+01   9.986e-01     1.744    -0.001     0.000     18.07
Cl            4.000e-02
   Cl-             3.963e-02   3.286e-02    -1.402    -1.483    -0.081     18.23
   HCl             3.724e-04   3.871e-04    -3.429    -3.412     0.017     20.36
H(0)          1.060e-14
   H2              5.302e-15   5.353e-15   -14.276   -14.271     0.004     14.99
O(0)          0.000e+00
   O2              0.000e+00   0.000e+00   -63.825   -63.821     0.004     30.40

------------------------------Saturation indices-------------------------------

  Phase               SI** log IAP   log K(298 K,   0 atm)

  H2(g)           -11.17    -14.27   -3.10  H2
  H2O(g)           -1.50     -0.00    1.50  H2O
  O2(g)           -60.93    -63.82   -2.89  O2

**For a gas, SI = log10(fugacity). Fugacity = pressure * phi / 1 atm.
  For ideal gases, phi = 1.

Reaction step 15.

Using solution 1.	
Using temperature 1.	
Using pressure 1.	
Using reaction 1.	

Reaction 1.	

	  5.050e-02 moles of the following reaction have been added:

	                 Relative
	Reactant            moles

	HCl                  1.00000

	                 Relative
	Element             moles
	Cl                   1.00000
	H                    1.00000

-----------------------------Solution composition------------------------------

	Elements           Molality       Moles

	Cl                5.050e-02   5.050e-02

----------------------------Description of solution----------------------------

                                       pH  =   1.370      Charge balance
                                       pe  =  16.154      Adjusted to redox equilibrium
      Specific Conductance (µS/cm,  25°C)  = 20058
                          Density (g/cm³)  =   0.99792
                               Volume (L)  =   1.00393
                        Viscosity (mPa s)  =   0.89275
                        Activity of water  =   0.998
                 Ionic strength (mol/kgw)  =   4.993e-02
                       Mass of water (kg)  =   1.000e+00
                 Total alkalinity (eq/kg)  =  -5.050e-02
                         Temperature (°C)  =  25.00
                           Pressure (atm)  =  0.03
                  Electrical balance (eq)  =   1.104e-12
 Percent error, 100*(Cat-|An|)/(Cat+|An|)  =   0.00
                               Iterations  =  15
                                  Total H  = 1.110629e+02
                                  Total O  = 5.550622e+01

----------------------------Distribution of species----------------------------

                                               Log       Log       Log    mole V
   Species          Molality    Activity  Molality  Activity     Gamma   cm³/mol

   H+              4.993e-02   4.263e-02    -1.302    -1.370    -0.069      0.00
   OH-             2.920e-13   2.370e-13   -12.535   -12.625    -0.091     -3.88
   H2O             5.551e+01   9.983e-01     1.744    -0.001     0.000     18.07
Cl            5.050e-02
   Cl-             4.993e-02   4.067e-02    -1.302    -1.391    -0.089     18.25
   HCl             5.687e-04   5.972e-04    -3.245    -3.224     0.021     20.36
H(0)          1.253e-38
   H2              6.264e-39   6.340e-39   -38.203   -38.198     0.005     14.99
O(0)          2.127e-16
   O2              1.064e-16   1.076e-16   -15.973   -15.968     0.005     30.40

------------------------------Saturation indices-------------------------------

  Phase               SI** log IAP   log K(298 K,   0 atm)

  H2(g)           -35.10    -38.20   -3.10  H2
  H2O(g)           -1.50     -0.00    1.50  H2O
  O2(g)           -13.08    -15.97   -2.89  O2

**For a gas, SI = log10(fugacity). Fugacity = pressure * phi / 1 atm.
  For ideal gases, phi = 1.

Reaction step 16.

Using solution 1.	
Using temperature 1.	
Using pressure 1.	
Using reaction 1.	

Reaction 1.	

	  5.765e-02 moles of the following reaction have been added:

	                 Relative
	Reactant            moles

	HCl                  1.00000

	                 Relative
	Element             moles
	Cl                   1.00000
	H                    1.00000

-----------------------------Solution composition------------------------------

	Elements           Molality       Moles

	Cl                5.765e-02   5.765e-02

----------------------------Description of solution----------------------------

                                       pH  =   1.316      Charge balance
                                       pe  =  16.468      Adjusted to redox equilibrium
      Specific Conductance (µS/cm,  25°C)  = 22810
                          Density (g/cm³)  =   0.99805
                               Volume (L)  =   1.00406
                        Viscosity (mPa s)  =   0.89311
                        Activity of water  =   0.998
                 Ionic strength (mol/kgw)  =   5.693e-02
                       Mass of water (kg)  =   1.000e+00
                 Total alkalinity (eq/kg)  =  -5.765e-02
                         Temperature (°C)  =  25.00
                           Pressure (atm)  =  0.03
                  Electrical balance (eq)  =   2.812e-13
 Percent error, 100*(Cat-|An|)/(Cat+|An|)  =   0.00
                               Iterations  =  15
                                  Total H  = 1.110701e+02
                                  Total O  = 5.550622e+01

----------------------------Distribution of species----------------------------

                                               Log       Log       Log    mole V
   Species          Molality    Activity  Molality  Activity     Gamma   cm³/mol

   H+              5.693e-02   4.830e-02    -1.245    -1.316    -0.071      0.00
   OH-             2.606e-13   2.091e-13   -12.584   -12.680    -0.095     -3.85
   H2O             5.551e+01   9.981e-01     1.744    -0.001     0.000     18.07
Cl            5.765e-02
   Cl-             5.693e-02   4.587e-02    -1.245    -1.338    -0.094     18.27
   HCl             7.219e-04   7.633e-04    -3.142    -3.117     0.024     20.36
H(0)          3.778e-39
   H2              1.889e-39   1.915e-39   -38.724   -38.718     0.006     14.99
O(0)          2.326e-15
   O2              1.163e-15   1.178e-15   -14.934   -14.929     0.006     30.40

------------------------------Saturation indices-------------------------------

  Phase               SI** log IAP   log K(298 K,   0 atm)

  H2(g)           -35.62    -38.72   -3.10  H2
  H2O(g)           -1.50     -0.00    1.50  H2O
  O2(g)           -12.04    -14.93   -2.89  O2

**For a gas, SI = log10(fugacity). Fugacity = pressure * phi / 1 atm.
  For ideal gases, phi = 1.

Reaction step 17.

Using solution 1.	
Using temperature 1.	
Using pressure 1.	
Using reaction 1.	

Reaction 1.	

	  6.184e-02 moles of the following reaction have been added:

	                 Relative
	Reactant            moles

	HCl                  1.00000

	                 Relative
	Element             moles
	Cl                   1.00000
	H                    1.00000

-----------------------------Solution composition------------------------------

	Elements           Molality       Moles

	Cl                6.184e-02   6.184e-02

----------------------------Description of solution----------------------------

                                       pH  =   1.287      Charge balance
                                       pe  =  16.504      Adjusted to redox equilibrium
      Specific Conductance (µS/cm,  25°C)  = 24415
                          Density (g/cm³)  =   0.99812
                               Volume (L)  =   1.00414
                        Viscosity (mPa s)  =   0.89332
                        Activity of water  =   0.998
                 Ionic strength (mol/kgw)  =   6.102e-02
                       Mass of water (kg)  =   1.000e+00
                 Total alkalinity (eq/kg)  =  -6.184e-02
                         Temperature (°C)  =  25.00
                           Pressure (atm)  =  0.03
                  Electrical balance (eq)  =   7.230e-14
 Percent error, 100*(Cat-|An|)/(Cat+|An|)  =   0.00
                               Iterations  =  15
                                  Total H  = 1.110743e+02
                                  Total O  = 5.550622e+01

----------------------------Distribution of species----------------------------

                                               Log       Log       Log    mole V
   Species          Molality    Activity  Molality  Activity     Gamma   cm³/mol

   H+              6.102e-02   5.160e-02    -1.215    -1.287    -0.073      0.00
   OH-             2.454e-13   1.957e-13   -12.610   -12.708    -0.098     -3.84
   H2O             5.551e+01   9.979e-01     1.744    -0.001     0.000     18.07
Cl            6.184e-02
   Cl-             6.102e-02   4.889e-02    -1.215    -1.311    -0.096     18.27
   HCl             8.186e-04   8.690e-04    -3.087    -3.061     0.026     20.36
H(0)          3.651e-39
   H2              1.826e-39   1.853e-39   -38.739   -38.732     0.006     14.99
O(0)          2.483e-15
   O2              1.241e-15   1.259e-15   -14.906   -14.900     0.006     30.40

------------------------------Saturation indices-------------------------------

  Phase               SI** log IAP   log K(298 K,   0 atm)

  H2(g)           -35.63    -38.73   -3.10  H2
  H2O(g)           -1.50     -0.00    1.50  H2O
  O2(g)           -12.01    -14.90   -2.89  O2

**For a gas, SI = log10(fugacity). Fugacity = pressure * phi / 1 atm.
  For ideal gases, phi = 1.

Reaction step 18.

Using solution 1.	
Using temperature 1.	
Using pressure 1.	
Using reaction 1.	

Reaction 1.	

	  7.539e-02 moles of the following reaction have been added:

	                 Relative
	Reactant            moles

	HCl                  1.00000

	                 Relative
	Element             moles
	Cl                   1.00000
	H                    1.00000

-----------------------------Solution composition------------------------------

	Elements           Molality       Moles

	Cl                7.539e-02   7.539e-02

----------------------------Description of solution----------------------------

                                       pH  =   1.206      Charge balance
                                       pe  =  16.433      Adjusted to redox equilibrium
      Specific Conductance (µS/cm,  25°C)  = 29573
                          Density (g/cm³)  =   0.99836
                               Volume (L)  =   1.00439
                        Viscosity (mPa s)  =   0.89401
                        Activity of water  =   0.997
                 Ionic strength (mol/kgw)  =   7.423e-02
                       Mass of water (kg)  =   1.000e+00
                 Total alkalinity (eq/kg)  =  -7.539e-02
                         Temperature (°C)  =  25.00
                           Pressure (atm)  =  0.03
                  Electrical balance (eq)  =   8.925e-11
 Percent error, 100*(Cat-|An|)/(Cat+|An|)  =   0.00
                               Iterations  =  15
                                  Total H  = 1.110878e+02
                                  Total O  = 5.550622e+01

----------------------------Distribution of species----------------------------

                                               Log       Log       Log    mole V
   Species          Molality    Activity  Molality  Activity     Gamma   cm³/mol

   H+              7.423e-02   6.217e-02    -1.129    -1.206    -0.077      0.00
   OH-             2.072e-13   1.624e-13   -12.684   -12.789    -0.106     -3.80
   H2O             5.551e+01   9.975e-01     1.744    -0.001     0.000     18.07
Cl            7.539e-02
   Cl-             7.423e-02   5.847e-02    -1.129    -1.233    -0.104     18.30
   HCl             1.164e-03   1.252e-03    -2.934    -2.902     0.032     20.36
H(0)          7.307e-39
   H2              3.654e-39   3.720e-39   -38.437   -38.429     0.008     14.99
O(0)          6.135e-16
   O2              3.067e-16   3.120e-16   -15.513   -15.506     0.007     30.40

------------------------------Saturation indices-------------------------------

  Phase               SI** log IAP   log K(298 K,   0 atm)

  H2(g)           -35.33    -38.43   -3.10  H2
  H2O(g)           -1.50     -0.00    1.50  H2O
  O2(g)           -12.61    -15.51   -2.89  O2

**For a gas, SI = log10(fugacity). Fugacity = pressure * phi / 1 atm.
  For ideal gases, phi = 1.

Reaction step 19.

Using solution 1.	
Using temperature 1.	
Using pressure 1.	
Using reaction 1.	

Reaction 1.	

	  7.969e-02 moles of the following reaction have been added:

	                 Relative
	Reactant            moles

	HCl                  1.00000

	                 Relative
	Element             moles
	Cl                   1.00000
	H                    1.00000

-----------------------------Solution composition------------------------------

	Elements           Molality       Moles

	Cl                7.969e-02   7.969e-02

----------------------------Description of solution----------------------------

                                       pH  =   1.184      Charge balance
                                       pe  =  16.375      Adjusted to redox equilibrium
      Specific Conductance (µS/cm,  25°C)  = 31200
                          Density (g/cm³)  =   0.99844
                               Volume (L)  =   1.00447
                        Viscosity (mPa s)  =   0.89423
                        Activity of water  =   0.997
                 Ionic strength (mol/kgw)  =   7.841e-02
                       Mass of water (kg)  =   1.000e+00
                 Total alkalinity (eq/kg)  =  -7.969e-02
                         Temperature (°C)  =  25.00
                           Pressure (atm)  =  0.03
                  Electrical balance (eq)  =   6.591e-10
 Percent error, 100*(Cat-|An|)/(Cat+|An|)  =   0.00
                               Iterations  =  15
                                  Total H  = 1.110921e+02
                                  Total O  = 5.550622e+01

----------------------------Distribution of species----------------------------

                                               Log       Log       Log    mole V
   Species          Molality    Activity  Molality  Activity     Gamma   cm³/mol

   H+              7.841e-02   6.550e-02    -1.106    -1.184    -0.078      0.00
   OH-             1.977e-13   1.541e-13   -12.704   -12.812    -0.108     -3.79
   H2O             5.551e+01   9.973e-01     1.744    -0.001     0.000     18.07
Cl            7.969e-02
   Cl-             7.841e-02   6.146e-02    -1.106    -1.211    -0.106     18.31
   HCl             1.284e-03   1.387e-03    -2.891    -2.858     0.033     20.36
H(0)          1.057e-38
   H2              5.287e-39   5.389e-39   -38.277   -38.269     0.008     14.99
O(0)          2.920e-16
   O2              1.460e-16   1.486e-16   -15.836   -15.828     0.008     30.40

------------------------------Saturation indices-------------------------------

  Phase               SI** log IAP   log K(298 K,   0 atm)

  H2(g)           -35.17    -38.27   -3.10  H2
  H2O(g)           -1.50     -0.00    1.50  H2O
  O2(g)           -12.94    -15.83   -2.89  O2

**For a gas, SI = log10(fugacity). Fugacity = pressure * phi / 1 atm.
  For ideal gases, phi = 1.

Reaction step 20.

Using solution 1.	
Using temperature 1.	
Using pressure 1.	
Using reaction 1.	

Reaction 1.	

	  7.993e-02 moles of the following reaction have been added:

	                 Relative
	Reactant            moles

	HCl                  1.00000

	                 Relative
	Element             moles
	Cl                   1.00000
	H                    1.00000

-----------------------------Solution composition------------------------------

	Elements           Molality       Moles

	Cl                7.993e-02   7.993e-02

----------------------------Description of solution----------------------------

                                       pH  =   1.183      Charge balance
                                       pe  =   4.560      Adjusted to redox equilibrium
      Specific Conductance (µS/cm,  25°C)  = 31291
                          Density (g/cm³)  =   0.99845
                               Volume (L)  =   1.00448
                        Viscosity (mPa s)  =   0.89424
                        Activity of water  =   0.997
                 Ionic strength (mol/kgw)  =   7.864e-02
                       Mass of water (kg)  =   1.000e+00
                 Total alkalinity (eq/kg)  =  -7.993e-02
                         Temperature (°C)  =  25.00
                           Pressure (atm)  =  0.03
                  Electrical balance (eq)  =   1.232e-13
 Percent error, 100*(Cat-|An|)/(Cat+|An|)  =   0.00
                               Iterations  =  11
                                  Total H  = 1.110924e+02
                                  Total O  = 5.550622e+01

----------------------------Distribution of species----------------------------

                                               Log       Log       Log    mole V
   Species          Molality    Activity  Molality  Activity     Gamma   cm³/mol

   H+              7.864e-02   6.568e-02    -1.104    -1.183    -0.078      0.00
   OH-             1.971e-13   1.537e-13   -12.705   -12.813    -0.108     -3.79
   H2O             5.551e+01   9.973e-01     1.744    -0.001     0.000     18.07
Cl            7.993e-02
   Cl-             7.864e-02   6.163e-02    -1.104    -1.210    -0.106     18.31
   HCl             1.291e-03   1.394e-03    -2.889    -2.856     0.033     20.36
H(0)          4.555e-15
   H2              2.277e-15   2.321e-15   -14.643   -14.634     0.008     14.99
O(0)          0.000e+00
   O2              0.000e+00   0.000e+00   -63.104   -63.096     0.008     30.40

------------------------------Saturation indices-------------------------------

  Phase               SI** log IAP   log K(298 K,   0 atm)

  H2(g)           -11.53    -14.63   -3.10  H2
  H2O(g)           -1.50     -0.00    1.50  H2O
  O2(g)           -60.20    -63.10   -2.89  O2

**For a gas, SI = log10(fugacity). Fugacity = pressure * phi / 1 atm.
  For ideal gases, phi = 1.

Reaction step 21.

Using solution 1.	
Using temperature 1.	
Using pressure 1.	
Using reaction 1.	

Reaction 1.	

	  9.071e-02 moles of the following reaction have been added:

	                 Relative
	Reactant            moles

	HCl                  1.00000

	                 Relative
	Element             moles
	Cl                   1.00000
	H                    1.00000

-----------------------------Solution composition------------------------------

	Elements           Molality       Moles

	Cl                9.071e-02   9.071e-02

----------------------------Description of solution----------------------------

                                       pH  =   1.131      Charge balance
                                       pe  =   4.846      Adjusted to redox equilibrium
      Specific Conductance (µS/cm,  25°C)  = 35348
                          Density (g/cm³)  =   0.99864
                               Volume (L)  =   1.00468
                        Viscosity (mPa s)  =   0.89479
                        Activity of water  =   0.997
                 Ionic strength (mol/kgw)  =   8.910e-02
                       Mass of water (kg)  =   1.000e+00
                 Total alkalinity (eq/kg)  =  -9.071e-02
                         Temperature (°C)  =  25.00
                           Pressure (atm)  =  0.03
                  Electrical balance (eq)  =   9.845e-15
 Percent error, 100*(Cat-|An|)/(Cat+|An|)  =   0.00
                               Iterations  =  10
                                  Total H  = 1.111031e+02
                                  Total O  = 5.550622e+01

----------------------------Distribution of species----------------------------

                                               Log       Log       Log    mole V
   Species          Molality    Activity  Molality  Activity     Gamma   cm³/mol

   H+              8.910e-02   7.396e-02    -1.050    -1.131    -0.081      0.00
   OH-             1.771e-13   1.364e-13   -12.752   -12.865    -0.113     -3.76
   H2O             5.551e+01   9.969e-01     1.744    -0.001     0.000     18.07
Cl            9.071e-02
   Cl-             8.910e-02   6.904e-02    -1.050    -1.161    -0.111     18.32
   HCl             1.612e-03   1.759e-03    -2.793    -2.755     0.038     20.36
H(0)          1.539e-15
   H2              7.693e-16   7.861e-16   -15.114   -15.105     0.009     14.99
O(0)          0.000e+00
   O2              0.000e+00   0.000e+00   -62.165   -62.156     0.009     30.40

------------------------------Saturation indices-------------------------------

  Phase               SI** log IAP   log K(298 K,   0 atm)

  H2(g)           -12.01    -15.10   -3.10  H2
  H2O(g)           -1.50     -0.00    1.50  H2O
  O2(g)           -59.26    -62.16   -2.89  O2

**For a gas, SI = log10(fugacity). Fugacity = pressure * phi / 1 atm.
  For ideal gases, phi = 1.

Reaction step 22.

Using solution 1.	
Using temperature 1.	
Using pressure 1.	
Using reaction 1.	

Reaction 1.	

	  9.898e-02 moles of the following reaction have been added:

	                 Relative
	Reactant            moles

	HCl                  1.00000

	                 Relative
	Element             moles
	Cl                   1.00000
	H                    1.00000

-----------------------------Solution composition------------------------------

	Elements           Molality       Moles

	Cl                9.898e-02   9.898e-02

----------------------------Description of solution----------------------------

                                       pH  =   1.095      Charge balance
                                       pe  =  16.625      Adjusted to redox equilibrium
      Specific Conductance (µS/cm,  25°C)  = 38438
                          Density (g/cm³)  =   0.99879
                               Volume (L)  =   1.00483
                        Viscosity (mPa s)  =   0.89521
                        Activity of water  =   0.997
                 Ionic strength (mol/kgw)  =   9.710e-02
                       Mass of water (kg)  =   1.000e+00
                 Total alkalinity (eq/kg)  =  -9.898e-02
                         Temperature (°C)  =  25.00
                           Pressure (atm)  =  0.03
                  Electrical balance (eq)  =   7.352e-12
 Percent error, 100*(Cat-|An|)/(Cat+|An|)  =   0.00
                               Iterations  =  14
                                  Total H  = 1.111114e+02
                                  Total O  = 5.550622e+01

----------------------------Distribution of species----------------------------

                                               Log       Log       Log    mole V
   Species          Molality    Activity  Molality  Activity     Gamma   cm³/mol

   H+              9.710e-02   8.026e-02    -1.013    -1.095    -0.083      0.00
   OH-             1.646e-13   1.257e-13   -12.784   -12.901    -0.117     -3.74
   H2O             5.551e+01   9.967e-01     1.744    -0.001     0.000     18.07
Cl            9.898e-02
   Cl-             9.710e-02   7.465e-02    -1.013    -1.127    -0.114     18.33
   HCl             1.877e-03   2.064e-03    -2.727    -2.685     0.041     20.36
H(0)          5.012e-39
   H2              2.506e-39   2.566e-39   -38.601   -38.591     0.010     14.99
O(0)          1.281e-15
   O2              6.404e-16   6.548e-16   -15.194   -15.184     0.010     30.40

------------------------------Saturation indices-------------------------------

  Phase               SI** log IAP   log K(298 K,   0 atm)

  H2(g)           -35.49    -38.59   -3.10  H2
  H2O(g)           -1.50     -0.00    1.50  H2O
  O2(g)           -12.29    -15.18   -2.89  O2

**For a gas, SI = log10(fugacity). Fugacity = pressure * phi / 1 atm.
  For ideal gases, phi = 1.

Reaction step 23.

Using solution 1.	
Using temperature 1.	
Using pressure 1.	
Using reaction 1.	

Reaction 1.	

	  1.001e-01 moles of the following reaction have been added:

	                 Relative
	Reactant            moles

	HCl                  1.00000

	                 Relative
	Element             moles
	Cl                   1.00000
	H                    1.00000

-----------------------------Solution composition------------------------------

	Elements           Molality       Moles

	Cl                1.001e-01   1.001e-01

----------------------------Description of solution----------------------------

                                       pH  =   1.091      Charge balance
                                       pe  =  16.619      Adjusted to redox equilibrium
      Specific Conductance (µS/cm,  25°C)  = 38856
                          Density (g/cm³)  =   0.99881
                               Volume (L)  =   1.00485
                        Viscosity (mPa s)  =   0.89527
                        Activity of water  =   0.997
                 Ionic strength (mol/kgw)  =   9.819e-02
                       Mass of water (kg)  =   1.000e+00
                 Total alkalinity (eq/kg)  =  -1.001e-01
                         Temperature (°C)  =  25.00
                           Pressure (atm)  =  0.03
                  Electrical balance (eq)  =   8.516e-10
 Percent error, 100*(Cat-|An|)/(Cat+|An|)  =   0.00
                               Iterations  =  14
                                  Total H  = 1.111125e+02
                                  Total O  = 5.550622e+01

----------------------------Distribution of species----------------------------

                                               Log       Log       Log    mole V
   Species          Molality    Activity  Molality  Activity     Gamma   cm³/mol

   H+              9.819e-02   8.111e-02    -1.008    -1.091    -0.083      0.00
   OH-             1.630e-13   1.244e-13   -12.788   -12.905    -0.117     -3.74
   H2O             5.551e+01   9.966e-01     1.744    -0.001     0.000     18.07
Cl            1.001e-01
   Cl-             9.819e-02   7.540e-02    -1.008    -1.123    -0.115     18.34
   HCl             1.914e-03   2.107e-03    -2.718    -2.676     0.042     20.36
H(0)          5.251e-39
   H2              2.626e-39   2.689e-39   -38.581   -38.570     0.010     14.99
O(0)          1.166e-15
   O2              5.829e-16   5.963e-16   -15.234   -15.225     0.010     30.40

------------------------------Saturation indices-------------------------------

  Phase               SI** log IAP   log K(298 K,   0 atm)

  H2(g)           -35.47    -38.57   -3.10  H2
  H2O(g)           -1.50     -0.00    1.50  H2O
  O2(g)           -12.33    -15.22   -2.89  O2

**For a gas, SI = log10(fugacity). Fugacity = pressure * phi / 1 atm.
  For ideal gases, phi = 1.

Reaction step 24.

Using solution 1.	
Using temperature 1.	
Using pressure 1.	
Using reaction 1.	

Reaction 1.	

	  1.159e-01 moles of the following reaction have been added:

	                 Relative
	Reactant            moles

	HCl                  1.00000

	                 Relative
	Element             moles
	Cl                   1.00000
	H                    1.00000

-----------------------------Solution composition------------------------------

	Elements           Molality       Moles

	Cl                1.159e-01   1.159e-01

----------------------------Description of solution----------------------------

                                       pH  =   1.031      Charge balance
                                       pe  =  16.728      Adjusted to redox equilibrium
      Specific Conductance (µS/cm,  25°C)  = 44716
                          Density (g/cm³)  =   0.99909
                               Volume (L)  =   1.00514
                        Viscosity (mPa s)  =   0.89608
                        Activity of water  =   0.996
                 Ionic strength (mol/kgw)  =   1.134e-01
                       Mass of water (kg)  =   1.000e+00
                 Total alkalinity (eq/kg)  =  -1.159e-01
                         Temperature (°C)  =  25.00
                           Pressure (atm)  =  0.03
                  Electrical balance (eq)  =  -7.851e-17
 Percent error, 100*(Cat-|An|)/(Cat+|An|)  =  -0.00
                               Iterations  =  14
                                  Total H  = 1.111283e+02
                                  Total O  = 5.550622e+01

----------------------------Distribution of species----------------------------

                                               Log       Log       Log    mole V
   Species          Molality    Activity  Molality  Activity     Gamma   cm³/mol

   H+              1.134e-01   9.304e-02    -0.945    -1.031    -0.086      0.00
   OH-             1.441e-13   1.084e-13   -12.841   -12.965    -0.124     -3.70
   H2O             5.551e+01   9.961e-01     1.744    -0.002     0.000     18.07
Cl            1.159e-01
   Cl-             1.134e-01   8.592e-02    -0.945    -1.066    -0.121     18.36
   HCl             2.464e-03   2.754e-03    -2.608    -2.560     0.048     20.36
H(0)          4.178e-39
   H2              2.089e-39   2.147e-39   -38.680   -38.668     0.012     14.99
O(0)          1.820e-15
   O2              9.100e-16   9.341e-16   -15.041   -15.030     0.011     30.40

------------------------------Saturation indices-------------------------------

  Phase               SI** log IAP   log K(298 K,   0 atm)

  H2(g)           -35.57    -38.67   -3.10  H2
  H2O(g)           -1.50     -0.00    1.50  H2O
  O2(g)           -12.14    -15.03   -2.89  O2

**For a gas, SI = log10(fugacity). Fugacity = pressure * phi / 1 atm.
  For ideal gases, phi = 1.

Reaction step 25.

Using solution 1.	
Using temperature 1.	
Using pressure 1.	
Using reaction 1.	

Reaction 1.	

	  1.240e-01 moles of the following reaction have been added:

	                 Relative
	Reactant            moles

	HCl                  1.00000

	                 Relative
	Element             moles
	Cl                   1.00000
	H                    1.00000

-----------------------------Solution composition------------------------------

	Elements           Molality       Moles

	Cl                1.240e-01   1.240e-01

----------------------------Description of solution----------------------------

                                       pH  =   1.004      Charge balance
                                       pe  =  16.789      Adjusted to redox equilibrium
      Specific Conductance (µS/cm,  25°C)  = 47698
                          Density (g/cm³)  =   0.99923
                               Volume (L)  =   1.00529
                        Viscosity (mPa s)  =   0.89650
                        Activity of water  =   0.996
                 Ionic strength (mol/kgw)  =   1.212e-01
                       Mass of water (kg)  =   1.000e+00
                 Total alkalinity (eq/kg)  =  -1.240e-01
                         Temperature (°C)  =  25.00
                           Pressure (atm)  =  0.03
                  Electrical balance (eq)  =   1.050e-09
 Percent error, 100*(Cat-|An|)/(Cat+|An|)  =   0.00
                               Iterations  =  13
                                  Total H  = 1.111364e+02
                                  Total O  = 5.550622e+01

----------------------------Distribution of species----------------------------

                                               Log       Log       Log    mole V
   Species          Molality    Activity  Molality  Activity     Gamma   cm³/mol

   H+              1.212e-01   9.911e-02    -0.916    -1.004    -0.088      0.00
   OH-             1.362e-13   1.017e-13   -12.866   -12.993    -0.127     -3.68
   H2O             5.551e+01   9.958e-01     1.744    -0.002     0.000     18.07
Cl            1.240e-01
   Cl-             1.212e-01   9.124e-02    -0.916    -1.040    -0.123     18.37
   HCl             2.766e-03   3.115e-03    -2.558    -2.507     0.052     20.36
H(0)          3.566e-39
   H2              1.783e-39   1.836e-39   -38.749   -38.736     0.013     14.99
O(0)          2.483e-15
   O2              1.241e-15   1.277e-15   -14.906   -14.894     0.012     30.40

------------------------------Saturation indices-------------------------------

  Phase               SI** log IAP   log K(298 K,   0 atm)

  H2(g)           -35.64    -38.74   -3.10  H2
  H2O(g)           -1.50     -0.00    1.50  H2O
  O2(g)           -12.00    -14.89   -2.89  O2

**For a gas, SI = log10(fugacity). Fugacity = pressure * phi / 1 atm.
  For ideal gases, phi = 1.

Reaction step 26.

Using solution 1.	
Using temperature 1.	
Using pressure 1.	
Using reaction 1.	

Reaction 1.	

	  1.257e-01 moles of the following reaction have been added:

	                 Relative
	Reactant            moles

	HCl                  1.00000

	                 Relative
	Element             moles
	Cl                   1.00000
	H                    1.00000

-----------------------------Solution composition------------------------------

	Elements           Molality       Moles

	Cl                1.256e-01   1.257e-01

----------------------------Description of solution----------------------------

                                       pH  =   0.999      Charge balance
                                       pe  =  16.831      Adjusted to redox equilibrium
      Specific Conductance (µS/cm,  25°C)  = 48304
[...]
N(5)          8.791e+00
   NO3-            8.791e+00   3.618e+00     0.944     0.558    -0.386     33.03
Na            8.791e+00
   Na+             8.791e+00   2.296e+01     0.944     1.361     0.417      1.81
O(0)          3.164e-07
   O2              1.582e-07   1.198e-06    -6.801    -5.922     0.879     30.40

------------------------------Saturation indices-------------------------------

  Phase               SI** log IAP   log K(298 K,   1 atm)

  H2(g)           -40.28    -43.37   -3.10  H2
  H2O(g)           -1.66     -0.15    1.50  H2O
  N2(g)            -3.14     -6.32   -3.18  N2
  O2(g)            -3.03     -5.92   -2.89  O2

**For a gas, SI = log10(fugacity). Fugacity = pressure * phi / 1 atm.
  For ideal gases, phi = 1.

Reaction step 76.

Using solution 1.	
Using temperature 1.	
Using pressure 1.	
Using reaction 1.	

Reaction 1.	

	  9.224e+00 moles of the following reaction have been added:

	                 Relative
	Reactant            moles

	NaNO3                1.00000

	                 Relative
	Element             moles
	N                    1.00000
	Na                   1.00000
	O                    3.00000

-----------------------------Solution composition------------------------------

	Elements           Molality       Moles

	N                 9.224e+00   9.224e+00
	Na                9.224e+00   9.224e+00

----------------------------Description of solution----------------------------

                                       pH  =   7.154      Charge balance
                                       pe  =  12.967      Adjusted to redox equilibrium
      Specific Conductance (µS/cm,  25°C)  = 199677
                          Density (g/cm³)  =   1.34531
                               Volume (L)  =   1.32609
                        Viscosity (mPa s)  =   2.34956
                        Activity of water  =   0.686
                 Ionic strength (mol/kgw)  =   9.224e+00
                       Mass of water (kg)  =   1.000e+00
                 Total alkalinity (eq/kg)  =   1.189e-07
                         Temperature (°C)  =  25.00
                  Electrical balance (eq)  =   2.243e-08
 Percent error, 100*(Cat-|An|)/(Cat+|An|)  =   0.00
                               Iterations  =  13
                                  Total H  = 1.110124e+02
                                  Total O  = 8.317822e+01

----------------------------Distribution of species----------------------------

                                               Log       Log       Log    mole V
   Species          Molality    Activity  Molality  Activity     Gamma   cm³/mol

   OH-             2.192e-07   9.906e-08    -6.659    -7.004    -0.345      8.78
   H+              1.003e-07   7.013e-08    -6.999    -7.154    -0.155      0.00
   H2O             5.551e+01   6.864e-01     1.744    -0.163     0.000     18.07
H(0)          0.000e+00
   H2              0.000e+00   0.000e+00   -44.360   -43.392     0.969     14.99
N(0)          1.189e-07
   N2              5.945e-08   4.972e-07    -7.226    -6.303     0.922     29.29
N(3)          2.860e-11
   NO2-            2.860e-11   1.171e-11   -10.544   -10.932    -0.388     27.80
N(5)          9.224e+00
   NO3-            9.224e+00   3.776e+00     0.965     0.577    -0.388     33.14
Na            9.224e+00
   Na+             9.224e+00   2.605e+01     0.965     1.416     0.451      1.89
O(0)          2.973e-07
   O2              1.486e-07   1.243e-06    -6.828    -5.905     0.922     30.40

------------------------------Saturation indices-------------------------------

  Phase               SI** log IAP   log K(298 K,   1 atm)

  H2(g)           -40.29    -43.39   -3.10  H2
  H2O(g)           -1.67     -0.16    1.50  H2O
  N2(g)            -3.13     -6.30   -3.18  N2
  O2(g)            -3.01     -5.91   -2.89  O2

**For a gas, SI = log10(fugacity). Fugacity = pressure * phi / 1 atm.
  For ideal gases, phi = 1.

Reaction step 77.

Using solution 1.	
Using temperature 1.	
Using pressure 1.	
Using reaction 1.	

Reaction 1.	

	  9.260e+00 moles of the following reaction have been added:

	                 Relative
	Reactant            moles

	NaNO3                1.00000

	                 Relative
	Element             moles
	N                    1.00000
	Na                   1.00000
	O                    3.00000

-----------------------------Solution composition------------------------------

	Elements           Molality       Moles

	N                 9.260e+00   9.260e+00
	Na                9.260e+00   9.260e+00

----------------------------Description of solution----------------------------

                                       pH  =   7.154      Charge balance
                                       pe  =  12.968      Adjusted to redox equilibrium
      Specific Conductance (µS/cm,  25°C)  = 199624
                          Density (g/cm³)  =   1.34619
                               Volume (L)  =   1.32749
                        Viscosity (mPa s)  =   2.35885
                        Activity of water  =   0.685
                 Ionic strength (mol/kgw)  =   9.260e+00
                       Mass of water (kg)  =   1.000e+00
                 Total alkalinity (eq/kg)  =   1.183e-07
                         Temperature (°C)  =  25.00
                  Electrical balance (eq)  =   1.863e-08
 Percent error, 100*(Cat-|An|)/(Cat+|An|)  =   0.00
                               Iterations  =  13
                                  Total H  = 1.110124e+02
                                  Total O  = 8.328559e+01

----------------------------Distribution of species----------------------------

                                               Log       Log       Log    mole V
   Species          Molality    Activity  Molality  Activity     Gamma   cm³/mol

   OH-             2.186e-07   9.879e-08    -6.660    -7.005    -0.345      8.83
   H+              1.004e-07   7.020e-08    -6.998    -7.154    -0.155      0.00
   H2O             5.551e+01   6.852e-01     1.744    -0.164     0.000     18.07
H(0)          0.000e+00
   H2              0.000e+00   0.000e+00   -44.366   -43.393     0.972     14.99
N(0)          1.183e-07
   N2              5.914e-08   4.987e-07    -7.228    -6.302     0.926     29.29
N(3)          2.867e-11
   NO2-            2.867e-11   1.173e-11   -10.543   -10.931    -0.388     27.81
N(5)          9.260e+00
   NO3-            9.260e+00   3.789e+00     0.967     0.578    -0.388     33.15
Na            9.260e+00
   Na+             9.260e+00   2.632e+01     0.967     1.420     0.454      1.90
O(0)          2.957e-07
   O2              1.479e-07   1.247e-06    -6.830    -5.904     0.926     30.40

------------------------------Saturation indices-------------------------------

  Phase               SI** log IAP   log K(298 K,   1 atm)

  H2(g)           -40.29    -43.39   -3.10  H2
  H2O(g)           -1.67     -0.16    1.50  H2O
  N2(g)            -3.13     -6.30   -3.18  N2
  O2(g)            -3.01     -5.90   -2.89  O2

**For a gas, SI = log10(fugacity). Fugacity = pressure * phi / 1 atm.
  For ideal gases, phi = 1.

Reaction step 78.

Using solution 1.	
Using temperature 1.	
Using pressure 1.	
Using reaction 1.	

Reaction 1.	

	  9.970e+00 moles of the following reaction have been added:

	                 Relative
	Reactant            moles

	NaNO3                1.00000

	                 Relative
	Element             moles
	N                    1.00000
	Na                   1.00000
	O                    3.00000

-----------------------------Solution composition------------------------------

	Elements           Molality       Moles

	N                 9.970e+00   9.970e+00
	Na                9.970e+00   9.970e+00

----------------------------Description of solution----------------------------

                                       pH  =   7.146      Charge balance
                                       pe  =  12.990      Adjusted to redox equilibrium
      Specific Conductance (µS/cm,  25°C)  = 198197
                          Density (g/cm³)  =   1.36306
                               Volume (L)  =   1.35532
                        Viscosity (mPa s)  =   2.54857
                        Activity of water  =   0.661
                 Ionic strength (mol/kgw)  =   9.970e+00
                       Mass of water (kg)  =   1.000e+00
                 Total alkalinity (eq/kg)  =   1.064e-07
                         Temperature (°C)  =  25.00
                  Electrical balance (eq)  =   2.686e-10
 Percent error, 100*(Cat-|An|)/(Cat+|An|)  =   0.00
                               Iterations  =  13
                                  Total H  = 1.110124e+02
                                  Total O  = 8.541520e+01

----------------------------Distribution of species----------------------------

                                               Log       Log       Log    mole V
   Species          Molality    Activity  Molality  Activity     Gamma   cm³/mol

   OH-             2.087e-07   9.368e-08    -6.681    -7.028    -0.348      9.71
   H+              1.023e-07   7.142e-08    -6.990    -7.146    -0.156      0.00
   H2O             5.551e+01   6.610e-01     1.744    -0.180     0.000     18.07
H(0)          0.000e+00
   H2              0.000e+00   0.000e+00   -44.468   -43.421     1.047     14.99
N(0)          1.064e-07
   N2              5.320e-08   5.283e-07    -7.274    -6.277     0.997     29.29
N(3)          2.999e-11
   NO2-            2.999e-11   1.217e-11   -10.523   -10.915    -0.392     27.92
N(5)          9.970e+00
   NO3-            9.970e+00   4.046e+00     0.999     0.607    -0.392     33.32
Na            9.970e+00
   Na+             9.970e+00   3.224e+01     0.999     1.508     0.510      2.02
O(0)          2.660e-07
   O2              1.330e-07   1.321e-06    -6.876    -5.879     0.997     30.40

------------------------------Saturation indices-------------------------------

  Phase               SI** log IAP   log K(298 K,   1 atm)

  H2(g)           -40.32    -43.42   -3.10  H2
  H2O(g)           -1.68     -0.18    1.50  H2O
  N2(g)            -3.10     -6.28   -3.18  N2
  O2(g)            -2.99     -5.88   -2.89  O2

**For a gas, SI = log10(fugacity). Fugacity = pressure * phi / 1 atm.
  For ideal gases, phi = 1.

Reaction step 79.

Using solution 1.	
Using temperature 1.	
Using pressure 1.	
Using reaction 1.	

Reaction 1.	

	  1.063e+01 moles of the following reaction have been added:

	                 Relative
	Reactant            moles

	NaNO3                1.00000

	                 Relative
	Element             moles
	N                    1.00000
	Na                   1.00000
	O                    3.00000

-----------------------------Solution composition------------------------------

	Elements           Molality       Moles

	N                 1.063e+01   1.063e+01
	Na                1.063e+01   1.063e+01

----------------------------Description of solution----------------------------

                                       pH  =   7.140      Charge balance
                                       pe  =  13.009      Adjusted to redox equilibrium
      Specific Conductance (µS/cm,  25°C)  = 196346
                          Density (g/cm³)  =   1.37781
                               Volume (L)  =   1.38144
                        Viscosity (mPa s)  =   2.73390
                        Activity of water  =   0.639
                 Ionic strength (mol/kgw)  =   1.063e+01
                       Mass of water (kg)  =   1.000e+00
                 Total alkalinity (eq/kg)  =   9.615e-08
                         Temperature (°C)  =  25.00
                  Electrical balance (eq)  =   7.440e-13
 Percent error, 100*(Cat-|An|)/(Cat+|An|)  =   0.00
                               Iterations  =  13
                                  Total H  = 1.110124e+02
                                  Total O  = 8.739064e+01

----------------------------Distribution of species----------------------------

                                               Log       Log       Log    mole V
   Species          Molality    Activity  Molality  Activity     Gamma   cm³/mol

   OH-             1.999e-07   8.927e-08    -6.699    -7.049    -0.350     10.52
   H+              1.038e-07   7.241e-08    -6.984    -7.140    -0.156      0.00
   H2O             5.551e+01   6.386e-01     1.744    -0.195     0.000     18.07
H(0)          0.000e+00
   H2              0.000e+00   0.000e+00   -44.563   -43.447     1.116     14.99
N(0)          9.615e-08
   N2              4.807e-08   5.555e-07    -7.318    -6.255     1.063     29.29
N(3)          3.118e-11
   NO2-            3.118e-11   1.256e-11   -10.506   -10.901    -0.395     28.01
N(5)          1.063e+01
   NO3-            1.063e+01   4.283e+00     1.026     0.632    -0.395     33.47
Na            1.063e+01
   Na+             1.063e+01   3.875e+01     1.026     1.588     0.562      2.14
O(0)          2.404e-07
   O2              1.202e-07   1.389e-06    -6.920    -5.857     1.063     30.40

------------------------------Saturation indices-------------------------------

  Phase               SI** log IAP   log K(298 K,   1 atm)

  H2(g)           -40.35    -43.45   -3.10  H2
  H2O(g)           -1.70     -0.19    1.50  H2O
  N2(g)            -3.08     -6.26   -3.18  N2
  O2(g)            -2.96     -5.86   -2.89  O2

**For a gas, SI = log10(fugacity). Fugacity = pressure * phi / 1 atm.
  For ideal gases, phi = 1.

Reaction step 80.

Using solution 1.	
Using temperature 1.	
Using pressure 1.	
Using reaction 1.	

Reaction 1.	

	  1.076e+01 moles of the following reaction have been added:

	                 Relative
	Reactant            moles

	NaNO3                1.00000

	                 Relative
	Element             moles
	N                    1.00000
	Na                   1.00000
	O                    3.00000

-----------------------------Solution composition------------------------------

	Elements           Molality       Moles

	N                 1.076e+01   1.076e+01
	Na                1.076e+01   1.076e+01

----------------------------Description of solution----------------------------

                                       pH  =   7.139      Charge balance
                                       pe  =  13.012      Adjusted to redox equilibrium
      Specific Conductance (µS/cm,  25°C)  = 195939
                          Density (g/cm³)  =   1.38056
                               Volume (L)  =   1.38652
                        Viscosity (mPa s)  =   2.77073
                        Activity of water  =   0.634
                 Ionic strength (mol/kgw)  =   1.076e+01
                       Mass of water (kg)  =   1.000e+00
                 Total alkalinity (eq/kg)  =   9.425e-08
                         Temperature (°C)  =  25.00
                  Electrical balance (eq)  =   6.728e-13
 Percent error, 100*(Cat-|An|)/(Cat+|An|)  =   0.00
                               Iterations  =  13
                                  Total H  = 1.110124e+02
                                  Total O  = 8.777224e+01

----------------------------Distribution of species----------------------------

                                               Log       Log       Log    mole V
   Species          Molality    Activity  Molality  Activity     Gamma   cm³/mol

   OH-             1.983e-07   8.845e-08    -6.703    -7.053    -0.351     10.68
   H+              1.040e-07   7.259e-08    -6.983    -7.139    -0.156      0.00
   H2O             5.551e+01   6.343e-01     1.744    -0.198     0.000     18.07
H(0)          0.000e+00
   H2              0.000e+00   0.000e+00   -44.582   -43.452     1.129     14.99
N(0)          9.425e-08
   N2              4.713e-08   5.608e-07    -7.327    -6.251     1.076     29.29
N(3)          3.140e-11
   NO2-            3.140e-11   1.264e-11   -10.503   -10.898    -0.395     28.03
N(5)          1.076e+01
   NO3-            1.076e+01   4.329e+00     1.032     0.636    -0.395     33.50
Na            1.076e+01
   Na+             1.076e+01   4.014e+01     1.032     1.604     0.572      2.16
O(0)          2.357e-07
   O2              1.178e-07   1.402e-06    -6.929    -5.853     1.076     30.40

------------------------------Saturation indices-------------------------------

  Phase               SI** log IAP   log K(298 K,   1 atm)

  H2(g)           -40.35    -43.45   -3.10  H2
  H2O(g)           -1.70     -0.20    1.50  H2O
  N2(g)            -3.08     -6.25   -3.18  N2
  O2(g)            -2.96     -5.85   -2.89  O2

**For a gas, SI = log10(fugacity). Fugacity = pressure * phi / 1 atm.
  For ideal gases, phi = 1.

Reaction step 81.

Using solution 1.	
Using temperature 1.	
Using pressure 1.	
Using reaction 1.	

Reaction 1.	

	  1.127e+01 moles of the following reaction have been added:

	                 Relative
	Reactant            moles

	NaNO3                1.00000

	                 Relative
	Element             moles
	N                    1.00000
	Na                   1.00000
	O                    3.00000

-----------------------------Solution composition------------------------------

	Elements           Molality       Moles

	N                 1.127e+01   1.127e+01
	Na                1.127e+01   1.127e+01

----------------------------Description of solution----------------------------

                                       pH  =   7.135      Charge balance
                                       pe  =  13.026      Adjusted to redox equilibrium
      Specific Conductance (µS/cm,  25°C)  = 194160
                          Density (g/cm³)  =   1.39133
                               Volume (L)  =   1.40708
                        Viscosity (mPa s)  =   2.92240
                        Activity of water  =   0.617
                 Ionic strength (mol/kgw)  =   1.127e+01
                       Mass of water (kg)  =   1.000e+00
                 Total alkalinity (eq/kg)  =   8.689e-08
                         Temperature (°C)  =  25.00
                  Electrical balance (eq)  =   4.450e-13
 Percent error, 100*(Cat-|An|)/(Cat+|An|)  =   0.00
                               Iterations  =  13
                                  Total H  = 1.110124e+02
                                  Total O  = 8.930905e+01

----------------------------Distribution of species----------------------------

                                               Log       Log       Log    mole V
   Species          Molality    Activity  Molality  Activity     Gamma   cm³/mol

   OH-             1.919e-07   8.528e-08    -6.717    -7.069    -0.352     11.31
   H+              1.050e-07   7.322e-08    -6.979    -7.135    -0.157      0.00
   H2O             5.551e+01   6.169e-01     1.744    -0.210     0.000     18.07
H(0)          0.000e+00
   H2              0.000e+00   0.000e+00   -44.656   -43.472     1.183     14.99
N(0)          8.689e-08
   N2              4.345e-08   5.817e-07    -7.362    -6.235     1.127     29.29
N(3)          3.230e-11
   NO2-            3.230e-11   1.294e-11   -10.491   -10.888    -0.397     28.10
N(5)          1.127e+01
   NO3-            1.127e+01   4.513e+00     1.052     0.654    -0.397     33.62
Na            1.127e+01
   Na+             1.127e+01   4.618e+01     1.052     1.664     0.613      2.24
O(0)          2.173e-07
   O2              1.086e-07   1.455e-06    -6.964    -5.837     1.127     30.40

------------------------------Saturation indices-------------------------------

  Phase               SI** log IAP   log K(298 K,   1 atm)

  H2(g)           -40.37    -43.47   -3.10  H2
  H2O(g)           -1.71     -0.21    1.50  H2O
  N2(g)            -3.06     -6.24   -3.18  N2
  O2(g)            -2.94     -5.84   -2.89  O2

**For a gas, SI = log10(fugacity). Fugacity = pressure * phi / 1 atm.
  For ideal gases, phi = 1.

------------------
End of simulation.
------------------

-------------------------------------
Reading input data for simulation 11.
-------------------------------------

