WARNING: Database file from DATABASE keyword is used; command line argument ignored.
   Input file: volume-zero
  Output file: volume-zero.out
Database file: ../database/phreeqc.dat

------------------
Reading data base.
------------------

	SOLUTION_MASTER_SPECIES
	SOLUTION_SPECIES
	PHASES
	GAS_BINARY_PARAMETERS
	EXCHANGE_MASTER_SPECIES
	EXCHANGE_SPECIES
	SURFACE_MASTER_SPECIES
	SURFACE_SPECIES
	MEAN_GAMMAS
	RATES
	END
------------------------------------
Reading input data for simulation 1.
------------------------------------

	database ../database/phreeqc.dat
	SELECTED_OUTPUT 101
	    file                 volume-zero_101.sel
	USER_PUNCH 101
	    headings Mu SC
	    start
	10 PUNCH STR_F$(MU, 20, 12)
	20 PUNCH STR_F$(SC, 20, 10)
	    end
	SOLUTION 1 (SampleID 20120312 PN1)
	    units mg/L
	    temp   57.6
	    pH     6.68
	    pe     0.851
	    Na     5107 
	    K      30.8 
	    N(-3)  35 as NH4+
	    Ca     120.2 
	    Mg     53.4 
	    Mn     0.009
		Fe(+3) 0.6      
	    Fe(+2) 0.3
	    Cl     8054 
	    N(3)   0.005 as NO2-
	    S(6)   5 as SO4-2
	    Alkalinity 8.9 meq/L
	    Si     12
	END
-------------------------------------------
Beginning of initial solution calculations.
-------------------------------------------

Initial solution 1.	(SampleID 20120312 PN1)

-----------------------------Solution composition------------------------------

	Elements           Molality       Moles

	Alkalinity        9.025e-03   9.025e-03
	Ca                3.041e-03   3.041e-03
	Cl                2.304e-01   2.304e-01
	Fe(2)             5.447e-06   5.447e-06
	Fe(3)             1.089e-05   1.089e-05
	K                 7.988e-04   7.988e-04
	Mg                2.227e-03   2.227e-03
	Mn                1.661e-07   1.661e-07
	N(-3)             1.968e-03   1.968e-03
	N(3)              1.102e-07   1.102e-07
	Na                2.253e-01   2.253e-01
	S(6)              5.278e-05   5.278e-05
	Si                2.025e-04   2.025e-04

----------------------------Description of solution----------------------------

                                       pH  =   6.680    
                                       pe  =   0.851    
      Specific Conductance (µS/cm,  58°C)  = 39370
                          Density (g/cm³)  =   0.99392
                               Volume (L)  =   1.02047
                        Viscosity (mPa s)  =   0.49780
                        Activity of water  =   0.992
                 Ionic strength (mol/kgw)  =   2.434e-01
                       Mass of water (kg)  =   1.000e+00
                    Total carbon (mol/kg)  =   1.132e-02
                       Total CO2 (mol/kg)  =   1.132e-02
                         Temperature (°C)  =  57.60
                  Electrical balance (eq)  =  -9.081e-04
 Percent error, 100*(Cat-|An|)/(Cat+|An|)  =  -0.19
                               Iterations  =  10
                                  Total H  = 1.110301e+02
                                  Total O  = 5.553889e+01

---------------------------------Redox couples---------------------------------

	Redox couple             pe  Eh (volts)

	Fe(2)/Fe(3)          3.8251      0.2510
	N(-3)/N(3)           3.7477      0.2459

----------------------------Distribution of species----------------------------

                                               Log       Log       Log    mole V
   Species          Molality    Activity  Molality  Activity     Gamma   cm³/mol

   OH-             5.945e-07   4.020e-07    -6.226    -6.396    -0.170     -3.05
   H+              2.679e-07   2.089e-07    -6.572    -6.680    -0.108      0.00
   H2O             5.551e+01   9.919e-01     1.744    -0.004     0.000     18.30
C(4)          1.132e-02
   HCO3-           8.223e-03   5.958e-03    -2.085    -2.225    -0.140     27.56
   CO2             2.347e-03   2.435e-03    -2.630    -2.613     0.016     36.36
   NaHCO3          6.487e-04   7.060e-04    -3.188    -3.151     0.037     19.37
   MgHCO3+         8.423e-05   5.807e-05    -4.075    -4.236    -0.162      6.22
   CO3-2           7.457e-06   2.020e-06    -5.127    -5.695    -0.567     -1.50
   CaCO3           6.796e-06   7.188e-06    -5.168    -5.143     0.024    -14.52
   KHCO3           2.202e-06   2.329e-06    -5.657    -5.633     0.024     23.04
   MgCO3           1.971e-06   2.085e-06    -5.705    -5.681     0.024    -17.10
   FeHCO3+         9.633e-07   6.982e-07    -6.016    -6.156    -0.140     (0)  
   (CO2)2          3.094e-07   3.210e-07    -6.510    -6.493     0.016     71.89
   CaHCO3+         2.017e-07   1.479e-07    -6.695    -6.830    -0.135     10.69
   FeCO3           5.369e-08   5.679e-08    -7.270    -7.246     0.024     (0)  
   MnHCO3+         2.332e-08   1.663e-08    -7.632    -7.779    -0.147     (0)  
   MnCO3           4.751e-09   5.024e-09    -8.323    -8.299     0.024     (0)  
Ca            3.041e-03
   Ca+2            3.032e-03   8.595e-04    -2.518    -3.066    -0.547    -16.99
   CaCO3           6.796e-06   7.188e-06    -5.168    -5.143     0.024    -14.52
   CaSO4           2.285e-06   2.343e-06    -5.641    -5.630     0.011      9.54
   CaHCO3+         2.017e-07   1.479e-07    -6.695    -6.830    -0.135     10.69
   CaOH+           9.343e-10   6.772e-10    -9.030    -9.169    -0.140     (0)  
   CaHSO4+         4.455e-12   3.229e-12   -11.351   -11.491    -0.140     (0)  
Cl            2.304e-01
   Cl-             2.304e-01   1.581e-01    -0.638    -0.801    -0.164     18.67
   FeCl+           3.528e-07   2.557e-07    -6.452    -6.592    -0.140     (0)  
   MnCl+           2.828e-08   2.016e-08    -7.549    -7.695    -0.147      1.29
   HCl             7.322e-09   9.295e-09    -8.135    -8.032     0.104     21.94
   MnCl2           1.316e-09   1.391e-09    -8.881    -8.857     0.024     58.64
   MnCl3-          8.497e-11   6.059e-11   -10.071   -10.218    -0.147     43.16
   FeCl+2          1.756e-13   4.537e-14   -12.756   -13.343    -0.588     (0)  
   FeCl2+          1.770e-14   1.262e-14   -13.752   -13.899    -0.147     (0)  
   FeCl3           1.887e-16   1.995e-16   -15.724   -15.700     0.024     (0)  
Fe(2)         5.447e-06
   Fe+2            4.053e-06   1.172e-06    -5.392    -5.931    -0.539    -19.66
   FeHCO3+         9.633e-07   6.982e-07    -6.016    -6.156    -0.140     (0)  
   FeCl+           3.528e-07   2.557e-07    -6.452    -6.592    -0.140     (0)  
   FeCO3           5.369e-08   5.679e-08    -7.270    -7.246     0.024     (0)  
   FeOH+           2.218e-08   1.581e-08    -7.654    -7.801    -0.147     (0)  
   FeSO4           2.348e-09   2.483e-09    -8.629    -8.605     0.024     31.82
   Fe(OH)2         7.783e-12   8.232e-12   -11.109   -11.084     0.024     (0)  
   FeHSO4+         6.073e-15   4.402e-15   -14.217   -14.356    -0.140     (0)  
   Fe(OH)3-        2.718e-15   1.938e-15   -14.566   -14.713    -0.147     (0)  
Fe(3)         1.089e-05
   Fe(OH)3         6.458e-06   6.831e-06    -5.190    -5.166     0.024     (0)  
   Fe(OH)2+        4.300e-06   3.102e-06    -5.367    -5.508    -0.142     (0)  
   Fe(OH)4-        1.336e-07   9.636e-08    -6.874    -7.016    -0.142     (0)  
   FeOH+2          2.505e-09   6.474e-10    -8.601    -9.189    -0.588     (0)  
   FeCl+2          1.756e-13   4.537e-14   -12.756   -13.343    -0.588     (0)  
   Fe+3            3.504e-14   3.744e-15   -13.455   -14.427    -0.971     (0)  
   FeCl2+          1.770e-14   1.262e-14   -13.752   -13.899    -0.147     (0)  
   FeSO4+          7.683e-16   5.478e-16   -15.114   -15.261    -0.147     (0)  
   Fe2(OH)2+4      5.771e-16   3.349e-18   -15.239   -17.475    -2.236     (0)  
   FeCl3           1.887e-16   1.995e-16   -15.724   -15.700     0.024     (0)  
   Fe3(OH)4+5      4.501e-19   1.442e-22   -18.347   -21.841    -3.494     (0)  
   Fe(SO4)2-       1.291e-19   9.360e-20   -18.889   -19.029    -0.140     (0)  
   FeHSO4+2        1.280e-21   3.533e-22   -20.893   -21.452    -0.559     (0)  
H(0)          8.638e-19
   H2              4.319e-19   4.581e-19   -18.365   -18.339     0.026     16.76
K             7.988e-04
   K+              7.965e-04   5.431e-04    -3.099    -3.265    -0.166     10.13
   KHCO3           2.202e-06   2.329e-06    -5.657    -5.633     0.024     23.04
   KSO4-           8.925e-08   7.163e-08    -7.049    -7.145    -0.096     28.03
Mg            2.227e-03
   Mg+2            2.138e-03   6.555e-04    -2.670    -3.183    -0.514    -21.82
   MgHCO3+         8.423e-05   5.807e-05    -4.075    -4.236    -0.162      6.22
   MgSO4           2.443e-06   2.733e-06    -5.612    -5.563     0.049      1.53
   MgCO3           1.971e-06   2.085e-06    -5.705    -5.681     0.024    -17.10
   MgOH+           2.162e-07   1.605e-07    -6.665    -6.794    -0.129     (0)  
   Mg(SO4)2-2      1.129e-10   3.685e-11    -9.947   -10.434    -0.486     57.10
Mn(2)         1.661e-07
   Mn+2            1.083e-07   3.131e-08    -6.965    -7.504    -0.539    -17.42
   MnCl+           2.828e-08   2.016e-08    -7.549    -7.695    -0.147      1.29
   MnHCO3+         2.332e-08   1.663e-08    -7.632    -7.779    -0.147     (0)  
   MnCO3           4.751e-09   5.024e-09    -8.323    -8.299     0.024     (0)  
   MnCl2           1.316e-09   1.391e-09    -8.881    -8.857     0.024     58.64
   MnCl3-          8.497e-11   6.059e-11   -10.071   -10.218    -0.147     43.16
   MnOH+           5.881e-11   4.193e-11   -10.231   -10.377    -0.147     (0)  
   MnSO4           1.388e-11   1.314e-11   -10.858   -10.881    -0.024     17.37
   Mn(OH)3-        7.448e-23   5.310e-23   -22.128   -22.275    -0.147     (0)  
Mn(3)         4.697e-30
   Mn+3            4.697e-30   5.019e-31   -29.328   -30.299    -0.971     (0)  
N(-3)         1.968e-03
   NH4+            1.941e-03   1.254e-03    -2.712    -2.902    -0.190     18.60
   NH3             2.555e-05   2.702e-05    -4.593    -4.568     0.024     24.83
   NH4SO4-         5.236e-07   3.773e-07    -6.281    -6.423    -0.142     36.67
N(3)          1.102e-07
   NO2-            1.102e-07   7.293e-08    -6.958    -7.137    -0.179     26.28
Na            2.253e-01
   Na+             2.246e-01   1.626e-01    -0.649    -0.789    -0.140      0.21
   NaHCO3          6.487e-04   7.060e-04    -3.188    -3.151     0.037     19.37
   NaSO4-          1.986e-05   1.426e-05    -4.702    -4.846    -0.144     19.70
   Na2SO4          1.876e-08   1.972e-08    -7.727    -7.705     0.022     36.94
O(0)          0.000e+00
   O2              0.000e+00   0.000e+00   -46.119   -46.095     0.024     32.28
S(6)          5.278e-05
   SO4-2           2.755e-05   6.963e-06    -4.560    -5.157    -0.597     17.32
   NaSO4-          1.986e-05   1.426e-05    -4.702    -4.846    -0.144     19.70
   MgSO4           2.443e-06   2.733e-06    -5.612    -5.563     0.049      1.53
   CaSO4           2.285e-06   2.343e-06    -5.641    -5.630     0.011      9.54
   NH4SO4-         5.236e-07   3.773e-07    -6.281    -6.423    -0.142     36.67
   KSO4-           8.925e-08   7.163e-08    -7.049    -7.145    -0.096     28.03
   Na2SO4          1.876e-08   1.972e-08    -7.727    -7.705     0.022     36.94
   FeSO4           2.348e-09   2.483e-09    -8.629    -8.605     0.024     31.82
   HSO4-           4.311e-10   3.125e-10    -9.365    -9.505    -0.140     41.92
   Mg(SO4)2-2      1.129e-10   3.685e-11    -9.947   -10.434    -0.486     57.10
   MnSO4           1.388e-11   1.314e-11   -10.858   -10.881    -0.024     17.37
   CaHSO4+         4.455e-12   3.229e-12   -11.351   -11.491    -0.140     (0)  
   FeHSO4+         6.073e-15   4.402e-15   -14.217   -14.356    -0.140     (0)  
   FeSO4+          7.683e-16   5.478e-16   -15.114   -15.261    -0.147     (0)  
   Fe(SO4)2-       1.291e-19   9.360e-20   -18.889   -19.029    -0.140     (0)  
   FeHSO4+2        1.280e-21   3.533e-22   -20.893   -21.452    -0.559     (0)  
Si            2.025e-04
   H4SiO4          2.020e-04   2.136e-04    -3.695    -3.670     0.024     50.17
   H3SiO4-         5.531e-07   3.813e-07    -6.257    -6.419    -0.162     28.59
   H2SiO4-2        2.640e-12   7.152e-13   -11.578   -12.146    -0.567     (0)  

------------------------------Saturation indices-------------------------------

  Phase               SI** log IAP   log K(330 K,   1 atm)

  Anhydrite        -3.36     -8.22   -4.86  CaSO4
  Aragonite        -0.15     -8.76   -8.61  CaCO3
  Arcanite        -10.11    -11.69   -1.58  K2SO4
  Calcite           0.01     -8.76   -8.77  CaCO3
  Chalcedony       -0.45     -3.66   -3.21  SiO2
  Chrysotile       -5.36     23.19   28.54  Mg3Si2O5(OH)4
  CO2(g)           -0.85     -2.61   -1.77  CO2
  Dolomite          0.24    -17.64  -17.88  CaMg(CO3)2
  Epsomite         -6.83     -8.37   -1.54  MgSO4:7H2O
  Fe(OH)3(a)        0.71      5.60    4.89  Fe(OH)3
  Goethite          7.65      5.61   -2.05  FeOOH
  Gypsum           -3.46     -8.23   -4.77  CaSO4:2H2O
  H2(g)           -15.21    -18.34   -3.13  H2
  H2O(g)           -0.76     -0.00    0.76  H2O
  Halite           -3.18     -1.59    1.59  NaCl
  Hausmannite     -21.14     32.61   53.76  Mn3O4
  Hematite         17.45     11.22   -6.24  Fe2O3
  Hexahydrite      -6.84     -8.36   -1.52  MgSO4:6H2O
  Jarosite-K       -5.33    -16.80  -11.47  KFe3(SO4)2(OH)6
  Kieserite        -7.09     -8.34   -1.26  MgSO4:H2O
  Manganite       -11.96     13.38   25.34  MnOOH
  Melanterite      -9.22    -11.11   -1.89  FeSO4:7H2O
  Mirabilite       -8.61     -6.77    1.84  Na2SO4:10H2O
  NH3(g)           -5.76     -4.57    1.20  NH3
  O2(g)           -43.04    -46.09   -3.06  O2
  Pyrochroite      -9.35      5.85   15.20  Mn(OH)2
  Pyrolusite      -15.77     20.91   36.68  MnO2:H2O
  Quartz           -0.12     -3.66   -3.55  SiO2
  Rhodochrosite    -1.97    -13.20  -11.23  MnCO3
  Sepiolite        -5.64      9.34   14.99  Mg2Si3O7.5OH:3H2O
  Sepiolite(d)     -9.32      9.34   18.66  Mg2Si3O7.5OH:3H2O
  Siderite         -0.56    -11.63  -11.07  FeCO3
  SiO2(a)          -1.19     -3.66   -2.47  SiO2
  Sylvite          -5.11     -4.07    1.05  KCl
  Talc             -2.19     15.86   18.05  Mg3Si4O10(OH)2
  Thenardite       -6.91     -6.73    0.17  Na2SO4

**For a gas, SI = log10(fugacity). Fugacity = pressure * phi / 1 atm.
  For ideal gases, phi = 1.

------------------
End of simulation.
------------------

------------------------------------
Reading input data for simulation 2.
------------------------------------

	USE solution 1
	SELECTED_OUTPUT
	    reset false
	    file volume-zero.sel
	    simulation false
	    state true
	    water false
	    ph true
	    pe true
	    gases CO2(g) N2(g) H2S(g) CH4(g) O2(g) H2O(g)
	USER_PUNCH
	heading gas_vm
	10 PUNCH gas_vm
	GAS_PHASE
	fixed_pressure
	pressure 129
	temperature 57.6
	CH4(g) 124.8
	CO2(g) 0.16
	SAVE solution 11
	END
-----------------------------------------
Beginning of batch-reaction calculations.
-----------------------------------------

Reaction step 1.

Using solution 1.	(SampleID 20120312 PN1)
Using gas phase 1.	

-----------------------------------Gas phase-----------------------------------

Total pressure: 129.00      atmospheres          (Peng-Robinson calculation)
    Gas volume:   9.51e-01 liters
  Molar volume:   1.83e-01 liters/mole
   P * Vm / RT:  0.87110  (Compressibility Factor Z) 

                                                        Moles in gas
                                            ----------------------------------
Component         log P           P    phi     Initial       Final       Delta

CH4(g)             2.11   1.288e+02  0.845   5.270e+00   5.181e+00  -8.922e-02
CO2(g)            -0.73   1.849e-01  0.648   6.756e-03   7.434e-03   6.782e-04

-----------------------------Solution composition------------------------------

	Elements           Molality       Moles

	C                 9.986e-02   9.986e-02
	Ca                3.041e-03   3.041e-03
	Cl                2.304e-01   2.304e-01
	Fe                1.634e-05   1.634e-05
	K                 7.988e-04   7.988e-04
	Mg                2.227e-03   2.227e-03
	Mn                1.661e-07   1.661e-07
	N                 1.968e-03   1.968e-03
	Na                2.253e-01   2.253e-01
	S                 5.278e-05   5.278e-05
	Si                2.025e-04   2.025e-04

----------------------------Description of solution----------------------------

                                       pH  =   6.778      Charge balance
                                       pe  =  -4.476      Adjusted to redox equilibrium
      Specific Conductance (µS/cm,  58°C)  = 39255
                          Density (g/cm³)  =   0.99747
                               Volume (L)  =   1.01824
                        Viscosity (mPa s)  =   0.50088
                        Activity of water  =   0.990
                 Ionic strength (mol/kgw)  =   2.434e-01
                       Mass of water (kg)  =   1.000e+00
                 Total alkalinity (eq/kg)  =   9.124e-03
                       Total CO2 (mol/kg)  =   1.069e-02
                         Temperature (°C)  =  57.60
                           Pressure (atm)  = 129.00
                  Electrical balance (eq)  =  -9.081e-04
 Percent error, 100*(Cat-|An|)/(Cat+|An|)  =  -0.19
                               Iterations  =  15
                                  Total H  = 1.113869e+02
                                  Total O  = 5.553753e+01

----------------------------Distribution of species----------------------------

                                               Log       Log       Log    mole V
   Species          Molality    Activity  Molality  Activity     Gamma   cm³/mol

   OH-             8.214e-07   5.570e-07    -6.085    -6.254    -0.169     -3.32
   H+              2.133e-07   1.667e-07    -6.671    -6.778    -0.107      0.00
   H2O             5.551e+01   9.904e-01     1.744    -0.004     0.000     18.20
C(-4)         8.917e-02
   CH4             8.917e-02   9.431e-02    -1.050    -1.025     0.024     37.90
C(4)          1.069e-02
   HCO3-           8.237e-03   5.982e-03    -2.084    -2.223    -0.139     27.96
   CO2             1.662e-03   1.725e-03    -2.779    -2.763     0.016     36.14
   NaHCO3          6.790e-04   7.389e-04    -3.168    -3.131     0.037     20.26
   MgHCO3+         8.533e-05   5.898e-05    -4.069    -4.229    -0.160      6.57
   CO3-2           1.063e-05   2.906e-06    -4.973    -5.537    -0.563     -0.36
   CaCO3           9.736e-06   1.030e-05    -5.012    -4.987     0.024    -13.70
   MgCO3           2.795e-06   2.956e-06    -5.554    -5.529     0.024    -16.22
   FeHCO3+         2.702e-06   1.963e-06    -5.568    -5.707    -0.139     (0)  
   KHCO3           2.386e-06   2.524e-06    -5.622    -5.598     0.024     22.77
   CaHCO3+         2.048e-07   1.505e-07    -6.689    -6.823    -0.134     10.92
   FeCO3           1.892e-07   2.001e-07    -6.723    -6.699     0.024     (0)  
   (CO2)2          1.558e-07   1.616e-07    -6.807    -6.791     0.016     71.44
   MnHCO3+         2.439e-08   1.743e-08    -7.613    -7.759    -0.146     (0)  
   MnCO3           6.244e-09   6.604e-09    -8.205    -8.180     0.024     (0)  
Ca            3.041e-03
   Ca+2            3.031e-03   8.674e-04    -2.518    -3.062    -0.543    -16.16
   CaCO3           9.736e-06   1.030e-05    -5.012    -4.987     0.024    -13.70
   CaHCO3+         2.048e-07   1.505e-07    -6.689    -6.823    -0.134     10.92
   CaOH+           1.189e-09   8.638e-10    -8.925    -9.064    -0.139     (0)  
   CaSO4           8.038e-10   8.241e-10    -9.095    -9.084     0.011      9.66
   CaHSO4+         1.305e-15   9.481e-16   -14.884   -15.023    -0.139     (0)  
Cl            2.304e-01
   Cl-             2.304e-01   1.585e-01    -0.638    -0.800    -0.162     18.70
   FeCl+           9.460e-07   6.872e-07    -6.024    -6.163    -0.139     (0)  
   MnCl+           2.801e-08   2.002e-08    -7.553    -7.699    -0.146      2.03
   HCl             5.770e-09   7.324e-09    -8.239    -8.135     0.104     21.84
   MnCl2           1.095e-09   1.158e-09    -8.960    -8.936     0.024     58.64
   MnCl3-          8.304e-11   5.934e-11   -10.081   -10.227    -0.146     43.42
   FeCl+2          2.335e-21   6.093e-22   -20.632   -21.215    -0.584     (0)  
   FeCl2+          2.597e-22   1.856e-22   -21.586   -21.731    -0.146     (0)  
   FeCl3           3.038e-24   3.213e-24   -23.517   -23.493     0.024     (0)  
Fe(2)         1.634e-05
   Fe+2            1.077e-05   3.142e-06    -4.968    -5.503    -0.535    -18.76
   FeHCO3+         2.702e-06   1.963e-06    -5.568    -5.707    -0.139     (0)  
   Fe(HS)2         1.650e-06   1.745e-06    -5.782    -5.758     0.024     (0)  
   FeCl+           9.460e-07   6.872e-07    -6.024    -6.163    -0.139     (0)  
   FeCO3           1.892e-07   2.001e-07    -6.723    -6.699     0.024     (0)  
   FeOH+           7.406e-08   5.293e-08    -7.130    -7.276    -0.146     (0)  
   Fe(HS)3-        6.827e-09   4.960e-09    -8.166    -8.305    -0.139     (0)  
   Fe(OH)2         3.554e-11   3.759e-11   -10.449   -10.425     0.024     (0)  
   FeSO4           1.955e-12   2.067e-12   -11.709   -11.685     0.024     31.54
   Fe(OH)3-        1.689e-14   1.207e-14   -13.772   -13.918    -0.146     (0)  
   FeHSO4+         4.669e-18   3.392e-18   -17.331   -17.470    -0.139     (0)  
Fe(3)         3.045e-13
   Fe(OH)3         2.010e-13   2.125e-13   -12.697   -12.673     0.024     (0)  
   Fe(OH)2+        9.787e-14   7.077e-14   -13.009   -13.150    -0.141     (0)  
   Fe(OH)4-        5.655e-15   4.089e-15   -14.248   -14.388    -0.141     (0)  
   FeOH+2          4.150e-17   1.083e-17   -16.382   -16.965    -0.584     (0)  
   FeCl+2          2.335e-21   6.093e-22   -20.632   -21.215    -0.584     (0)  
   Fe+3            4.231e-22   4.591e-23   -21.374   -22.338    -0.965     (0)  
   FeCl2+          2.597e-22   1.856e-22   -21.586   -21.731    -0.146     (0)  
   FeCl3           3.038e-24   3.213e-24   -23.517   -23.493     0.024     (0)  
   FeSO4+          3.700e-27   2.644e-27   -26.432   -26.578    -0.146     (0)  
   Fe2(OH)2+4      1.556e-31   9.368e-34   -30.808   -33.028    -2.220     (0)  
   FeHSO4+2        4.883e-33   1.360e-33   -32.311   -32.866    -0.555     (0)  
   Fe(SO4)2-       2.448e-34   1.779e-34   -33.611   -33.750    -0.139     (0)  
   Fe3(OH)4+5      0.000e+00   0.000e+00   -41.567   -45.036    -3.469     (0)  
H(0)          2.292e-08
   H2              1.146e-08   1.215e-08    -7.941    -7.915     0.026     16.70
K             7.988e-04
   K+              7.964e-04   5.445e-04    -3.099    -3.264    -0.165     10.44
   KHCO3           2.386e-06   2.524e-06    -5.622    -5.598     0.024     22.77
   KSO4-           3.233e-11   2.600e-11   -10.490   -10.585    -0.095     28.16
Mg            2.227e-03
   Mg+2            2.139e-03   6.615e-04    -2.670    -3.179    -0.510    -20.88
   MgHCO3+         8.533e-05   5.898e-05    -4.069    -4.229    -0.160      6.57
   MgCO3           2.795e-06   2.956e-06    -5.554    -5.529     0.024    -16.22
   MgOH+           2.692e-07   2.002e-07    -6.570    -6.698    -0.128     (0)  
   MgSO4           8.615e-10   9.637e-10    -9.065    -9.016     0.049      4.41
   Mg(SO4)2-2      1.215e-17   3.997e-18   -16.915   -17.398    -0.483     56.72
Mn(2)         1.661e-07
   Mn+2            1.062e-07   3.098e-08    -6.974    -7.509    -0.535    -16.50
   MnCl+           2.801e-08   2.002e-08    -7.553    -7.699    -0.146      2.03
   MnHCO3+         2.439e-08   1.743e-08    -7.613    -7.759    -0.146     (0)  
   MnCO3           6.244e-09   6.604e-09    -8.205    -8.180     0.024     (0)  
   MnCl2           1.095e-09   1.158e-09    -8.960    -8.936     0.024     58.64
   MnCl3-          8.304e-11   5.934e-11   -10.081   -10.227    -0.146     43.42
   MnOH+           7.324e-11   5.234e-11   -10.135   -10.281    -0.146     (0)  
   MnSO4           4.614e-15   4.367e-15   -14.336   -14.360    -0.024     17.11
   Mn(OH)3-        1.726e-22   1.233e-22   -21.763   -21.909    -0.146     (0)  
   Mn(NO3)2        0.000e+00   0.000e+00  -159.784  -159.760     0.024     34.95
Mn(3)         1.993e-35
   Mn+3            1.993e-35   2.163e-36   -34.701   -35.665    -0.965     (0)  
N(-3)         1.950e-03
   NH4+            1.919e-03   1.243e-03    -2.717    -2.905    -0.188     18.80
   NH3             3.084e-05   3.261e-05    -4.511    -4.487     0.024     25.00
   NH4SO4-         1.876e-10   1.355e-10    -9.727    -9.868    -0.141     36.46
N(0)          1.799e-05
   N2              8.995e-06   9.513e-06    -5.046    -5.022     0.024     29.29
N(3)          0.000e+00
   NO2-            0.000e+00   0.000e+00   -55.462   -55.641    -0.178     26.18
N(5)          0.000e+00
   NO3-            0.000e+00   0.000e+00   -76.245   -76.423    -0.178     31.73
   Mn(NO3)2        0.000e+00   0.000e+00  -159.784  -159.760     0.024     34.95
Na            2.253e-01
   Na+             2.246e-01   1.630e-01    -0.649    -0.788    -0.139      0.58
   NaHCO3          6.790e-04   7.389e-04    -3.168    -3.131     0.037     20.26
   NaSO4-          7.122e-09   5.128e-09    -8.147    -8.290    -0.143     20.37
   Na2SO4          6.254e-12   6.572e-12   -11.204   -11.182     0.022     37.53
O(0)          0.000e+00
   O2              0.000e+00   0.000e+00   -67.027   -67.003     0.024     31.97
S(-2)         5.276e-05
   HS-             3.475e-05   2.356e-05    -4.459    -4.628    -0.169     21.70
   H2S             1.469e-05   1.554e-05    -4.833    -4.809     0.024     40.25
   Fe(HS)2         1.650e-06   1.745e-06    -5.782    -5.758     0.024     (0)  
   Fe(HS)3-        6.827e-09   4.960e-09    -8.166    -8.305    -0.139     (0)  
   S-2             5.426e-10   1.416e-10    -9.266    -9.849    -0.584     (0)  
   (H2S)2          2.829e-11   2.992e-11   -10.548   -10.524     0.024     34.08
S(6)          1.888e-08
   SO4-2           9.866e-09   2.517e-09    -8.006    -8.599    -0.593     18.10
   NaSO4-          7.122e-09   5.128e-09    -8.147    -8.290    -0.143     20.37
   MgSO4           8.615e-10   9.637e-10    -9.065    -9.016     0.049      4.41
   CaSO4           8.038e-10   8.241e-10    -9.095    -9.084     0.011      9.66
   NH4SO4-         1.876e-10   1.355e-10    -9.727    -9.868    -0.141     36.46
   KSO4-           3.233e-11   2.600e-11   -10.490   -10.585    -0.095     28.16
   Na2SO4          6.254e-12   6.572e-12   -11.204   -11.182     0.022     37.53
   FeSO4           1.955e-12   2.067e-12   -11.709   -11.685     0.024     31.54
   HSO4-           1.110e-13   8.065e-14   -12.955   -13.093    -0.139     41.56
   MnSO4           4.614e-15   4.367e-15   -14.336   -14.360    -0.024     17.11
   CaHSO4+         1.305e-15   9.481e-16   -14.884   -15.023    -0.139     (0)  
   Mg(SO4)2-2      1.215e-17   3.997e-18   -16.915   -17.398    -0.483     56.72
   FeHSO4+         4.669e-18   3.392e-18   -17.331   -17.470    -0.139     (0)  
   FeSO4+          3.700e-27   2.644e-27   -26.432   -26.578    -0.146     (0)  
   FeHSO4+2        4.883e-33   1.360e-33   -32.311   -32.866    -0.555     (0)  
   Fe(SO4)2-       2.448e-34   1.779e-34   -33.611   -33.750    -0.139     (0)  
Si            2.025e-04
   H4SiO4          2.018e-04   2.134e-04    -3.695    -3.671     0.024     50.25
   H3SiO4-         7.642e-07   5.282e-07    -6.117    -6.277    -0.160     28.86
   H2SiO4-2        5.206e-12   1.423e-12   -11.284   -11.847    -0.563     (0)  

------------------------------Saturation indices-------------------------------

  Phase               SI** log IAP   log K(330 K, 129 atm)

  Anhydrite        -6.89    -11.66   -4.77  CaSO4
  Aragonite        -0.09     -8.60   -8.51  CaCO3
  Arcanite        -13.60    -15.13   -1.53  K2SO4
  Calcite           0.07     -8.60   -8.66  CaCO3
  CH4(g)            2.04     -1.03   -3.06  CH4	 Pressure 128.8 atm, phi 0.845
  Chalcedony       -0.47     -3.66   -3.19  SiO2
  Chrysotile       -4.86     23.78   28.65  Mg3Si2O5(OH)4
  CO2(g)           -0.92     -2.76   -1.84  CO2	 Pressure   0.2 atm, phi 0.648
  Dolomite          0.36    -17.31  -17.67  CaMg(CO3)2
  Epsomite        -10.32    -11.81   -1.49  MgSO4:7H2O
  Fe(OH)3(a)       -6.80     -2.02    4.78  Fe(OH)3
  FeS(ppt)          0.57     -3.35   -3.92  FeS
  Goethite          0.07     -2.01   -2.08  FeOOH
  Gypsum           -6.98    -11.67   -4.69  CaSO4:2H2O
  H2(g)            -4.75     -7.92   -3.16  H2
  H2O(g)           -0.72     -0.00    0.72  H2O
  H2S(g)           -3.44    -11.41   -7.96  H2S
  Halite           -3.20     -1.59    1.61  NaCl
  Hausmannite     -30.98     22.73   53.71  Mn3O4
  Hematite          2.27     -4.02   -6.29  Fe2O3
  Hexahydrite     -10.33    -11.80   -1.47  MgSO4:6H2O
  Jarosite-K      -35.04    -46.83  -11.79  KFe3(SO4)2(OH)6
  Kieserite       -10.60    -11.78   -1.18  MgSO4:H2O
  Mackinawite       1.26     -3.35   -4.61  FeS
  Manganite       -16.96      8.34   25.30  MnOOH
  Melanterite     -11.98    -14.13   -2.15  FeSO4:7H2O
  Mirabilite      -12.08    -10.22    1.87  Na2SO4:10H2O
  N2(g)            -1.65     -5.02   -3.37  N2
  NH3(g)           -5.63     -4.49    1.14  NH3
  O2(g)           -63.88    -67.00   -3.12  O2
  Pyrite            7.51    -10.15  -17.66  FeS2
  Pyrochroite      -9.12      6.04   15.16  Mn(OH)2
  Pyrolusite      -25.96     10.64   36.60  MnO2:H2O
  Quartz           -0.13     -3.66   -3.53  SiO2
  Rhodochrosite    -1.91    -13.05  -11.14  MnCO3
  Sepiolite        -5.33      9.74   15.08  Mg2Si3O7.5OH:3H2O
  Sepiolite(d)     -8.71      9.74   18.46  Mg2Si3O7.5OH:3H2O
  Siderite         -0.07    -11.04  -10.97  FeCO3
  SiO2(a)          -1.16     -3.66   -2.50  SiO2
  Sulfur           -4.32     -0.20    4.11  S
  Sylvite          -5.13     -4.06    1.06  KCl
  Talc             -1.74     16.46   18.20  Mg3Si4O10(OH)2
  Thenardite      -10.41    -10.17    0.24  Na2SO4

**For a gas, SI = log10(fugacity). Fugacity = pressure * phi / 1 atm.
  For ideal gases, phi = 1.

------------------
End of simulation.
------------------

------------------------------------
Reading input data for simulation 3.
------------------------------------

	USE solution 11
	PRINT
	gas_phase false
	GAS_PHASE
	fixed_pressure
	pressure 129
	temperature 57.6
	CH4(g) 0
	CO2(g) 0
	END
-----------------------------------------
Beginning of batch-reaction calculations.
-----------------------------------------

Reaction step 1.

Using solution 11.	Solution after simulation 2.
Using gas phase 1.	

-----------------------------Solution composition------------------------------

	Elements           Molality       Moles

	C                 9.986e-02   9.986e-02
	Ca                3.041e-03   3.041e-03
	Cl                2.304e-01   2.304e-01
	Fe                1.634e-05   1.634e-05
	K                 7.988e-04   7.988e-04
	Mg                2.227e-03   2.227e-03
	Mn                1.661e-07   1.661e-07
	N                 1.968e-03   1.968e-03
	Na                2.253e-01   2.253e-01
	S                 5.278e-05   5.278e-05
	Si                2.025e-04   2.025e-04

----------------------------Description of solution----------------------------

                                       pH  =   6.778      Charge balance
                                       pe  =  -4.476      Adjusted to redox equilibrium
      Specific Conductance (µS/cm,  58°C)  = 39255
                          Density (g/cm³)  =   0.99747
                               Volume (L)  =   1.01824
                        Viscosity (mPa s)  =   0.50088
                        Activity of water  =   0.990
                 Ionic strength (mol/kgw)  =   2.434e-01
                       Mass of water (kg)  =   1.000e+00
                 Total alkalinity (eq/kg)  =   9.124e-03
                       Total CO2 (mol/kg)  =   1.069e-02
                         Temperature (°C)  =  57.60
                           Pressure (atm)  = 129.00
                  Electrical balance (eq)  =  -9.081e-04
 Percent error, 100*(Cat-|An|)/(Cat+|An|)  =  -0.19
                               Iterations  =   0
                                  Total H  = 1.113869e+02
                                  Total O  = 5.553753e+01

----------------------------Distribution of species----------------------------

                                               Log       Log       Log    mole V
   Species          Molality    Activity  Molality  Activity     Gamma   cm³/mol

   OH-             8.214e-07   5.570e-07    -6.085    -6.254    -0.169     -3.32
   H+              2.133e-07   1.667e-07    -6.671    -6.778    -0.107      0.00
   H2O             5.551e+01   9.904e-01     1.744    -0.004     0.000     18.20
C(-4)         8.917e-02
   CH4             8.917e-02   9.431e-02    -1.050    -1.025     0.024     37.90
C(4)          1.069e-02
   HCO3-           8.237e-03   5.982e-03    -2.084    -2.223    -0.139     27.96
   CO2             1.662e-03   1.725e-03    -2.779    -2.763     0.016     36.14
   NaHCO3          6.790e-04   7.389e-04    -3.168    -3.131     0.037     20.26
   MgHCO3+         8.533e-05   5.898e-05    -4.069    -4.229    -0.160      6.57
   CO3-2           1.063e-05   2.906e-06    -4.973    -5.537    -0.563     -0.36
   CaCO3           9.736e-06   1.030e-05    -5.012    -4.987     0.024    -13.70
   MgCO3           2.795e-06   2.956e-06    -5.554    -5.529     0.024    -16.22
   FeHCO3+         2.702e-06   1.963e-06    -5.568    -5.707    -0.139     (0)  
   KHCO3           2.386e-06   2.524e-06    -5.622    -5.598     0.024     22.77
   CaHCO3+         2.048e-07   1.505e-07    -6.689    -6.823    -0.134     10.92
   FeCO3           1.892e-07   2.001e-07    -6.723    -6.699     0.024     (0)  
   (CO2)2          1.558e-07   1.616e-07    -6.807    -6.791     0.016     71.44
   MnHCO3+         2.439e-08   1.743e-08    -7.613    -7.759    -0.146     (0)  
   MnCO3           6.244e-09   6.604e-09    -8.205    -8.180     0.024     (0)  
Ca            3.041e-03
   Ca+2            3.031e-03   8.674e-04    -2.518    -3.062    -0.543    -16.16
   CaCO3           9.736e-06   1.030e-05    -5.012    -4.987     0.024    -13.70
   CaHCO3+         2.048e-07   1.505e-07    -6.689    -6.823    -0.134     10.92
   CaOH+           1.189e-09   8.638e-10    -8.925    -9.064    -0.139     (0)  
   CaSO4           8.038e-10   8.241e-10    -9.095    -9.084     0.011      9.66
   CaHSO4+         1.305e-15   9.481e-16   -14.884   -15.023    -0.139     (0)  
Cl            2.304e-01
   Cl-             2.304e-01   1.585e-01    -0.638    -0.800    -0.162     18.70
   FeCl+           9.460e-07   6.872e-07    -6.024    -6.163    -0.139     (0)  
   MnCl+           2.801e-08   2.002e-08    -7.553    -7.699    -0.146      2.03
   HCl             5.770e-09   7.324e-09    -8.239    -8.135     0.104     21.84
   MnCl2           1.095e-09   1.158e-09    -8.960    -8.936     0.024     58.64
   MnCl3-          8.304e-11   5.934e-11   -10.081   -10.227    -0.146     43.42
   FeCl+2          2.335e-21   6.093e-22   -20.632   -21.215    -0.584     (0)  
   FeCl2+          2.597e-22   1.856e-22   -21.586   -21.731    -0.146     (0)  
   FeCl3           3.038e-24   3.213e-24   -23.517   -23.493     0.024     (0)  
Fe(2)         1.634e-05
   Fe+2            1.077e-05   3.142e-06    -4.968    -5.503    -0.535    -18.76
   FeHCO3+         2.702e-06   1.963e-06    -5.568    -5.707    -0.139     (0)  
   Fe(HS)2         1.650e-06   1.745e-06    -5.782    -5.758     0.024     (0)  
   FeCl+           9.460e-07   6.872e-07    -6.024    -6.163    -0.139     (0)  
   FeCO3           1.892e-07   2.001e-07    -6.723    -6.699     0.024     (0)  
   FeOH+           7.406e-08   5.293e-08    -7.130    -7.276    -0.146     (0)  
   Fe(HS)3-        6.827e-09   4.960e-09    -8.166    -8.305    -0.139     (0)  
   Fe(OH)2         3.554e-11   3.759e-11   -10.449   -10.425     0.024     (0)  
   FeSO4           1.955e-12   2.067e-12   -11.709   -11.685     0.024     31.54
   Fe(OH)3-        1.689e-14   1.207e-14   -13.772   -13.918    -0.146     (0)  
   FeHSO4+         4.669e-18   3.392e-18   -17.331   -17.470    -0.139     (0)  
Fe(3)         3.045e-13
   Fe(OH)3         2.010e-13   2.125e-13   -12.697   -12.673     0.024     (0)  
   Fe(OH)2+        9.787e-14   7.077e-14   -13.009   -13.150    -0.141     (0)  
   Fe(OH)4-        5.655e-15   4.089e-15   -14.248   -14.388    -0.141     (0)  
   FeOH+2          4.150e-17   1.083e-17   -16.382   -16.965    -0.584     (0)  
   FeCl+2          2.335e-21   6.093e-22   -20.632   -21.215    -0.584     (0)  
   Fe+3            4.231e-22   4.591e-23   -21.374   -22.338    -0.965     (0)  
   FeCl2+          2.597e-22   1.856e-22   -21.586   -21.731    -0.146     (0)  
   FeCl3           3.038e-24   3.213e-24   -23.517   -23.493     0.024     (0)  
   FeSO4+          3.700e-27   2.644e-27   -26.432   -26.578    -0.146     (0)  
   Fe2(OH)2+4      1.556e-31   9.368e-34   -30.808   -33.028    -2.220     (0)  
   FeHSO4+2        4.883e-33   1.360e-33   -32.311   -32.866    -0.555     (0)  
   Fe(SO4)2-       2.448e-34   1.779e-34   -33.611   -33.750    -0.139     (0)  
   Fe3(OH)4+5      0.000e+00   0.000e+00   -41.567   -45.036    -3.469     (0)  
H(0)          2.292e-08
   H2              1.146e-08   1.215e-08    -7.941    -7.915     0.026     16.70
K             7.988e-04
   K+              7.964e-04   5.445e-04    -3.099    -3.264    -0.165     10.44
   KHCO3           2.386e-06   2.524e-06    -5.622    -5.598     0.024     22.77
   KSO4-           3.233e-11   2.600e-11   -10.490   -10.585    -0.095     28.16
Mg            2.227e-03
   Mg+2            2.139e-03   6.615e-04    -2.670    -3.179    -0.510    -20.88
   MgHCO3+         8.533e-05   5.898e-05    -4.069    -4.229    -0.160      6.57
   MgCO3           2.795e-06   2.956e-06    -5.554    -5.529     0.024    -16.22
   MgOH+           2.692e-07   2.002e-07    -6.570    -6.698    -0.128     (0)  
   MgSO4           8.615e-10   9.637e-10    -9.065    -9.016     0.049      4.41
   Mg(SO4)2-2      1.215e-17   3.997e-18   -16.915   -17.398    -0.483     56.72
Mn(2)         1.661e-07
   Mn+2            1.062e-07   3.098e-08    -6.974    -7.509    -0.535    -16.50
   MnCl+           2.801e-08   2.002e-08    -7.553    -7.699    -0.146      2.03
   MnHCO3+         2.439e-08   1.743e-08    -7.613    -7.759    -0.146     (0)  
   MnCO3           6.244e-09   6.604e-09    -8.205    -8.180     0.024     (0)  
   MnCl2           1.095e-09   1.158e-09    -8.960    -8.936     0.024     58.64
   MnCl3-          8.304e-11   5.934e-11   -10.081   -10.227    -0.146     43.42
   MnOH+           7.324e-11   5.234e-11   -10.135   -10.281    -0.146     (0)  
   MnSO4           4.614e-15   4.367e-15   -14.336   -14.360    -0.024     17.11
   Mn(OH)3-        1.726e-22   1.233e-22   -21.763   -21.909    -0.146     (0)  
   Mn(NO3)2        0.000e+00   0.000e+00  -159.784  -159.760     0.024     34.95
Mn(3)         1.993e-35
   Mn+3            1.993e-35   2.163e-36   -34.701   -35.665    -0.965     (0)  
N(-3)         1.950e-03
   NH4+            1.919e-03   1.243e-03    -2.717    -2.905    -0.188     18.80
   NH3             3.084e-05   3.261e-05    -4.511    -4.487     0.024     25.00
   NH4SO4-         1.876e-10   1.355e-10    -9.727    -9.868    -0.141     36.46
N(0)          1.799e-05
   N2              8.995e-06   9.513e-06    -5.046    -5.022     0.024     29.29
N(3)          0.000e+00
   NO2-            0.000e+00   0.000e+00   -55.462   -55.641    -0.178     26.18
N(5)          0.000e+00
   NO3-            0.000e+00   0.000e+00   -76.245   -76.423    -0.178     31.73
   Mn(NO3)2        0.000e+00   0.000e+00  -159.784  -159.760     0.024     34.95
Na            2.253e-01
   Na+             2.246e-01   1.630e-01    -0.649    -0.788    -0.139      0.58
   NaHCO3          6.790e-04   7.389e-04    -3.168    -3.131     0.037     20.26
   NaSO4-          7.122e-09   5.128e-09    -8.147    -8.290    -0.143     20.37
   Na2SO4          6.254e-12   6.572e-12   -11.204   -11.182     0.022     37.53
O(0)          0.000e+00
   O2              0.000e+00   0.000e+00   -67.027   -67.003     0.024     31.97
S(-2)         5.276e-05
   HS-             3.475e-05   2.356e-05    -4.459    -4.628    -0.169     21.70
   H2S             1.469e-05   1.554e-05    -4.833    -4.809     0.024     40.25
   Fe(HS)2         1.650e-06   1.745e-06    -5.782    -5.758     0.024     (0)  
   Fe(HS)3-        6.827e-09   4.960e-09    -8.166    -8.305    -0.139     (0)  
   S-2             5.426e-10   1.416e-10    -9.266    -9.849    -0.584     (0)  
   (H2S)2          2.829e-11   2.992e-11   -10.548   -10.524     0.024     34.08
S(6)          1.888e-08
   SO4-2           9.866e-09   2.517e-09    -8.006    -8.599    -0.593     18.10
   NaSO4-          7.122e-09   5.128e-09    -8.147    -8.290    -0.143     20.37
   MgSO4           8.615e-10   9.637e-10    -9.065    -9.016     0.049      4.41
   CaSO4           8.038e-10   8.241e-10    -9.095    -9.084     0.011      9.66
   NH4SO4-         1.876e-10   1.355e-10    -9.727    -9.868    -0.141     36.46
   KSO4-           3.233e-11   2.600e-11   -10.490   -10.585    -0.095     28.16
   Na2SO4          6.254e-12   6.572e-12   -11.204   -11.182     0.022     37.53
   FeSO4           1.955e-12   2.067e-12   -11.709   -11.685     0.024     31.54
   HSO4-           1.110e-13   8.065e-14   -12.955   -13.093    -0.139     41.56
   MnSO4           4.614e-15   4.367e-15   -14.336   -14.360    -0.024     17.11
   CaHSO4+         1.305e-15   9.481e-16   -14.884   -15.023    -0.139     (0)  
   Mg(SO4)2-2      1.215e-17   3.997e-18   -16.915   -17.398    -0.483     56.72
   FeHSO4+         4.669e-18   3.392e-18   -17.331   -17.470    -0.139     (0)  
   FeSO4+          3.700e-27   2.644e-27   -26.432   -26.578    -0.146     (0)  
   FeHSO4+2        4.883e-33   1.360e-33   -32.311   -32.866    -0.555     (0)  
   Fe(SO4)2-       2.448e-34   1.779e-34   -33.611   -33.750    -0.139     (0)  
Si            2.025e-04
   H4SiO4          2.018e-04   2.134e-04    -3.695    -3.671     0.024     50.25
   H3SiO4-         7.642e-07   5.282e-07    -6.117    -6.277    -0.160     28.86
   H2SiO4-2        5.206e-12   1.423e-12   -11.284   -11.847    -0.563     (0)  

------------------------------Saturation indices-------------------------------

  Phase               SI** log IAP   log K(330 K, 129 atm)

  Anhydrite        -6.89    -11.66   -4.77  CaSO4
  Aragonite        -0.09     -8.60   -8.51  CaCO3
  Arcanite        -13.60    -15.13   -1.53  K2SO4
  Calcite           0.07     -8.60   -8.66  CaCO3
  CH4(g)            2.04     -1.03   -3.06  CH4
  Chalcedony       -0.47     -3.66   -3.19  SiO2
  Chrysotile       -4.86     23.78   28.65  Mg3Si2O5(OH)4
  CO2(g)           -0.92     -2.76   -1.84  CO2
  Dolomite          0.36    -17.31  -17.67  CaMg(CO3)2
  Epsomite        -10.32    -11.81   -1.49  MgSO4:7H2O
  Fe(OH)3(a)       -6.80     -2.02    4.78  Fe(OH)3
  FeS(ppt)          0.57     -3.35   -3.92  FeS
  Goethite          0.07     -2.01   -2.08  FeOOH
  Gypsum           -6.98    -11.67   -4.69  CaSO4:2H2O
  H2(g)            -4.75     -7.92   -3.16  H2
  H2O(g)           -0.72     -0.00    0.72  H2O
  H2S(g)           -3.44    -11.41   -7.96  H2S
  Halite           -3.20     -1.59    1.61  NaCl
  Hausmannite     -30.98     22.73   53.71  Mn3O4
  Hematite          2.27     -4.02   -6.29  Fe2O3
  Hexahydrite     -10.33    -11.80   -1.47  MgSO4:6H2O
  Jarosite-K      -35.04    -46.83  -11.79  KFe3(SO4)2(OH)6
  Kieserite       -10.60    -11.78   -1.18  MgSO4:H2O
  Mackinawite       1.26     -3.35   -4.61  FeS
  Manganite       -16.96      8.34   25.30  MnOOH
  Melanterite     -11.98    -14.13   -2.15  FeSO4:7H2O
  Mirabilite      -12.08    -10.22    1.87  Na2SO4:10H2O
  N2(g)            -1.65     -5.02   -3.37  N2
  NH3(g)           -5.63     -4.49    1.14  NH3
  O2(g)           -63.88    -67.00   -3.12  O2
  Pyrite            7.51    -10.15  -17.66  FeS2
  Pyrochroite      -9.12      6.04   15.16  Mn(OH)2
  Pyrolusite      -25.96     10.64   36.60  MnO2:H2O
  Quartz           -0.13     -3.66   -3.53  SiO2
  Rhodochrosite    -1.91    -13.05  -11.14  MnCO3
  Sepiolite        -5.33      9.74   15.08  Mg2Si3O7.5OH:3H2O
  Sepiolite(d)     -8.71      9.74   18.46  Mg2Si3O7.5OH:3H2O
  Siderite         -0.07    -11.04  -10.97  FeCO3
  SiO2(a)          -1.16     -3.66   -2.50  SiO2
  Sulfur           -4.32     -0.20    4.11  S
  Sylvite          -5.13     -4.06    1.06  KCl
  Talc             -1.74     16.46   18.20  Mg3Si4O10(OH)2
  Thenardite      -10.41    -10.17    0.24  Na2SO4

**For a gas, SI = log10(fugacity). Fugacity = pressure * phi / 1 atm.
  For ideal gases, phi = 1.

------------------
End of simulation.
------------------

------------------------------------
Reading input data for simulation 4.
------------------------------------

