WARNING: Database file from DATABASE keyword is used; command line argument ignored.
   Input file: y_H2O
  Output file: y_H2O.out
Database file: ../database/Amm.dat

------------------
Reading data base.
------------------

	SOLUTION_MASTER_SPECIES
	SOLUTION_SPECIES
	PHASES
	GAS_BINARY_PARAMETERS
	EXCHANGE_MASTER_SPECIES
	EXCHANGE_SPECIES
	SURFACE_MASTER_SPECIES
	SURFACE_SPECIES
	MEAN_GAMMAS
	RATES
	END
------------------------------------
Reading input data for simulation 1.
------------------------------------

	DATABASE ../database/Amm.dat
	SELECTED_OUTPUT 101
	    file                 y_H2O_101.sel
	USER_PUNCH 101
	    headings Mu SC
	    start
	10 PUNCH STR_F$(MU, 20, 12)
	20 PUNCH STR_F$(SC, 20, 10)
	    end
	SOLUTION 1
	REACTION 1
	 CO2 1
	 10*0.1 5*0.5 12*2
	INCREMENTAL_REACTIONS true
	GAS_PHASE 1
	 fixed_volume
	 CO2(g) 0
	 H2O(g) 0
	USER_GRAPH
	 -plot_csv_file y_H2O.dat
	 -connect_simulations false
	 -axis_titles "pressure / bar" "y_H2O * 1000"
	 axis_scale x_axis 0 615
	 axis_scale y_axis 0 25
	 10 graph_x pressure * 1.01325
	 20 graph_y gas("H2O(g)") / (gas("CO2(g)") + gas("H2O(g)")) * 1e3
	END
-------------------------------------------
Beginning of initial solution calculations.
-------------------------------------------

Initial solution 1.	

-----------------------------Solution composition------------------------------

	Elements           Molality       Moles

	Pure water     

----------------------------Description of solution----------------------------

                                       pH  =   7.000    
                                       pe  =   4.000    
      Specific Conductance (µS/cm,  25°C)  = 0
                          Density (g/cm³)  =   0.99704
                               Volume (L)  =   1.00297
                        Viscosity (mPa s)  =   0.89002
                        Activity of water  =   1.000
                 Ionic strength (mol/kgw)  =   1.007e-07
                       Mass of water (kg)  =   1.000e+00
                 Total alkalinity (eq/kg)  =   1.217e-09
                         Temperature (°C)  =  25.00
                  Electrical balance (eq)  =  -1.217e-09
 Percent error, 100*(Cat-|An|)/(Cat+|An|)  =  -0.60
                               Iterations  =   0
                                  Total H  = 1.110124e+02
                                  Total O  = 5.550622e+01

----------------------------Distribution of species----------------------------

                                               Log       Log       Log    mole V
   Species          Molality    Activity  Molality  Activity     Gamma   cm³/mol

   OH-             1.013e-07   1.012e-07    -6.995    -6.995    -0.000     -4.14
   H+              1.001e-07   1.000e-07    -7.000    -7.000    -0.000      0.00
   H2O             5.551e+01   1.000e+00     1.744     0.000     0.000     18.07
H(0)          1.416e-25
   H2              7.079e-26   7.079e-26   -25.150   -25.150     0.000     14.99
O(0)          0.000e+00
   O2              0.000e+00   0.000e+00   -42.063   -42.063     0.000     30.40

------------------------------Saturation indices-------------------------------

  Phase               SI** log IAP   log K(298 K,   1 atm)

  H2(g)           -22.05    -25.15   -3.10  H2
  H2O(g)           -1.50      0.00    1.50  H2O
  O2(g)           -39.17    -42.06   -2.89  O2

**For a gas, SI = log10(fugacity). Fugacity = pressure * phi / 1 atm.
  For ideal gases, phi = 1.

-----------------------------------------
Beginning of batch-reaction calculations.
-----------------------------------------

Reaction step 1.

Using solution 1.	
Using gas phase 1.	
Using reaction 1.	

Reaction 1.	

	  1.000e-01 moles of the following reaction have been added:

	                 Relative
	Reactant            moles

	CO2                  1.00000

	                 Relative
	Element             moles
	C                    1.00000
	O                    2.00000

-----------------------------------Gas phase-----------------------------------

Total pressure:  1.36      atmospheres          (Peng-Robinson calculation)
    Gas volume:   1.00e+00 liters
  Molar volume:   1.78e+01 liters/mole
   P * Vm / RT:  0.99229  (Compressibility Factor Z) 

                                                        Moles in gas
                                            ----------------------------------
Component         log P           P    phi     Initial       Final       Delta

CO2(g)             0.12   1.332e+00  0.992   0.000e+00   5.485e-02   5.485e-02
H2O(g)            -1.50   3.182e-02  0.987   0.000e+00   1.311e-03   1.311e-03

-----------------------------Solution composition------------------------------

	Elements           Molality       Moles

	C                 4.515e-02   4.515e-02

----------------------------Description of solution----------------------------

                                       pH  =   3.850      Charge balance
                                       pe  =  14.027      Adjusted to redox equilibrium
      Specific Conductance (µS/cm,  25°C)  = 55
                          Density (g/cm³)  =   0.99748
                               Volume (L)  =   1.00449
                        Viscosity (mPa s)  =   0.89316
                        Activity of water  =   0.999
                 Ionic strength (mol/kgw)  =   1.433e-04
                       Mass of water (kg)  =   1.000e+00
                 Total alkalinity (eq/kg)  =   1.215e-09
                       Total CO2 (mol/kg)  =   4.515e-02
                         Temperature (°C)  =  25.00
                           Pressure (atm)  =  1.36
                  Electrical balance (eq)  =  -1.215e-09
 Percent error, 100*(Cat-|An|)/(Cat+|An|)  =  -0.00
                               Iterations  =  31
                                  Total H  = 1.110098e+02
                                  Total O  = 5.559521e+01

----------------------------Distribution of species----------------------------

                                               Log       Log       Log    mole V
   Species          Molality    Activity  Molality  Activity     Gamma   cm³/mol

   H+              1.433e-04   1.414e-04    -3.844    -3.850    -0.006      0.00
   OH-             7.256e-11   7.156e-11   -10.139   -10.145    -0.006     -4.13
   H2O             5.551e+01   9.992e-01     1.744    -0.000     0.000     18.07
C(-4)         0.000e+00
   CH4             0.000e+00   0.000e+00  -119.972  -119.972     0.000     35.46
C(4)          4.515e-02
   CO2             4.494e-02   4.495e-02    -1.347    -1.347     0.000     34.79
   HCO3-           1.433e-04   1.414e-04    -3.844    -3.850    -0.006     24.53
   (CO2)2          3.284e-05   3.284e-05    -4.484    -4.484     0.000     68.75
   CO3-2           4.956e-11   4.691e-11   -10.305   -10.329    -0.024     -4.76
H(0)          2.494e-39
   H2              1.247e-39   1.247e-39   -38.904   -38.904     0.000     14.99
O(0)          5.569e-15
   O2              2.784e-15   2.784e-15   -14.555   -14.555     0.000     30.40

------------------------------Saturation indices-------------------------------

  Phase               SI** log IAP   log K(298 K,   1 atm)

  CH4(g)         -117.17   -119.97   -2.80  CH4
  CO2(g)            0.12     -1.35   -1.47  CO2	 Pressure   1.3 atm, phi 0.992
  H2(g)           -35.80    -38.90   -3.10  H2
  H2O(g)           -1.50     -0.00    1.50  H2O	 Pressure   0.0 atm, phi 0.987
  O2(g)           -11.66    -14.56   -2.89  O2

**For a gas, SI = log10(fugacity). Fugacity = pressure * phi / 1 atm.
  For ideal gases, phi = 1.

Reaction step 2.

Using solution 1.	
Using gas phase 1.	
Using reaction 1.	

Reaction 1.	

	  1.000e-01 moles of the following reaction have been added:

	                 Relative
	Reactant            moles

	CO2                  1.00000

	                 Relative
	Element             moles
	C                    1.00000
	O                    2.00000

-----------------------------------Gas phase-----------------------------------

Total pressure:  2.69      atmospheres          (Peng-Robinson calculation)
    Gas volume:   1.00e+00 liters
  Molar volume:   8.94e+00 liters/mole
   P * Vm / RT:  0.98484  (Compressibility Factor Z) 

                                                        Moles in gas
                                            ----------------------------------
Component         log P           P    phi     Initial       Final       Delta

CO2(g)             0.43   2.663e+00  0.985   5.485e-02   1.105e-01   5.566e-02
H2O(g)            -1.49   3.223e-02  0.974   1.311e-03   1.338e-03   2.709e-05

-----------------------------Solution composition------------------------------

	Elements           Molality       Moles

	C                 8.950e-02   8.950e-02

----------------------------Description of solution----------------------------

                                       pH  =   3.701      Charge balance
                                       pe  =  14.266      Adjusted to redox equilibrium
      Specific Conductance (µS/cm,  25°C)  = 78
                          Density (g/cm³)  =   0.99795
                               Volume (L)  =   1.00597
                        Viscosity (mPa s)  =   0.89620
                        Activity of water  =   0.998
                 Ionic strength (mol/kgw)  =   2.023e-04
                       Mass of water (kg)  =   1.000e+00
                 Total alkalinity (eq/kg)  =   1.214e-09
                       Total CO2 (mol/kg)  =   8.950e-02
                         Temperature (°C)  =  25.00
                           Pressure (atm)  =  2.69
                  Electrical balance (eq)  =  -1.214e-09
 Percent error, 100*(Cat-|An|)/(Cat+|An|)  =  -0.00
                               Iterations  =  22
                                  Total H  = 1.110098e+02
                                  Total O  = 5.568387e+01

----------------------------Distribution of species----------------------------

                                               Log       Log       Log    mole V
   Species          Molality    Activity  Molality  Activity     Gamma   cm³/mol

   H+              2.023e-04   1.991e-04    -3.694    -3.701    -0.007      0.00
   OH-             5.169e-11   5.084e-11   -10.287   -10.294    -0.007     -4.12
   H2O             5.551e+01   9.985e-01     1.744    -0.001     0.000     18.07
C(-4)         0.000e+00
   CH4             0.000e+00   0.000e+00  -120.396  -120.396     0.000     35.46
C(4)          8.950e-02
   CO2             8.904e-02   8.904e-02    -1.050    -1.050     0.000     34.79
   HCO3-           2.023e-04   1.990e-04    -3.694    -3.701    -0.007     24.54
   (CO2)2          1.289e-04   1.289e-04    -3.890    -3.890     0.000     68.75
   CO3-2           5.014e-11   4.698e-11   -10.300   -10.328    -0.028     -4.74
H(0)          1.646e-39
   H2              8.232e-40   8.232e-40   -39.085   -39.084     0.000     14.99
O(0)          1.275e-14
   O2              6.373e-15   6.373e-15   -14.196   -14.196     0.000     30.40

------------------------------Saturation indices-------------------------------

  Phase               SI** log IAP   log K(298 K,   3 atm)

  CH4(g)         -117.59   -120.40   -2.80  CH4
  CO2(g)            0.42     -1.05   -1.47  CO2	 Pressure   2.7 atm, phi 0.985
  H2(g)           -35.98    -39.08   -3.10  H2
  H2O(g)           -1.50     -0.00    1.50  H2O	 Pressure   0.0 atm, phi 0.974
  O2(g)           -11.30    -14.20   -2.89  O2

**For a gas, SI = log10(fugacity). Fugacity = pressure * phi / 1 atm.
  For ideal gases, phi = 1.

Reaction step 3.

Using solution 1.	
Using gas phase 1.	
Using reaction 1.	

Reaction 1.	

	  1.000e-01 moles of the following reaction have been added:

	                 Relative
	Reactant            moles

	CO2                  1.00000

	                 Relative
	Element             moles
	C                    1.00000
	O                    2.00000

-----------------------------------Gas phase-----------------------------------

Total pressure:  4.02      atmospheres          (Peng-Robinson calculation)
    Gas volume:   1.00e+00 liters
  Molar volume:   5.94e+00 liters/mole
   P * Vm / RT:  0.97734  (Compressibility Factor Z) 

                                                        Moles in gas
                                            ----------------------------------
Component         log P           P    phi     Initial       Final       Delta

CO2(g)             0.60   3.992e+00  0.978   1.105e-01   1.669e-01   5.644e-02
H2O(g)            -1.49   3.266e-02  0.962   1.338e-03   1.366e-03   2.792e-05

-----------------------------Solution composition------------------------------

	Elements           Molality       Moles

	C                 1.331e-01   1.331e-01

----------------------------Description of solution----------------------------

                                       pH  =   3.615      Charge balance
                                       pe  =  14.365      Adjusted to redox equilibrium
      Specific Conductance (µS/cm,  25°C)  = 95
                          Density (g/cm³)  =   0.99842
                               Volume (L)  =   1.00743
                        Viscosity (mPa s)  =   0.89917
                        Activity of water  =   0.998
                 Ionic strength (mol/kgw)  =   2.470e-04
                       Mass of water (kg)  =   1.000e+00
                 Total alkalinity (eq/kg)  =   1.213e-09
                       Total CO2 (mol/kg)  =   1.331e-01
                         Temperature (°C)  =  25.00
                           Pressure (atm)  =  4.02
                  Electrical balance (eq)  =  -1.213e-09
 Percent error, 100*(Cat-|An|)/(Cat+|An|)  =  -0.00
                               Iterations  =  22
                                  Total H  = 1.110097e+02
                                  Total O  = 5.577097e+01

----------------------------Distribution of species----------------------------

                                               Log       Log       Log    mole V
   Species          Molality    Activity  Molality  Activity     Gamma   cm³/mol

   H+              2.470e-04   2.427e-04    -3.607    -3.615    -0.008      0.00
   OH-             4.248e-11   4.172e-11   -10.372   -10.380    -0.008     -4.11
   H2O             5.551e+01   9.977e-01     1.744    -0.001     0.000     18.07
C(-4)         0.000e+00
   CH4             0.000e+00   0.000e+00  -120.331  -120.331     0.000     35.46
C(4)          1.331e-01
   CO2             1.322e-01   1.323e-01    -0.879    -0.879     0.000     34.79
   (CO2)2          2.844e-04   2.844e-04    -3.546    -3.546     0.000     68.74
   HCO3-           2.470e-04   2.426e-04    -3.607    -3.615    -0.008     24.54
   CO3-2           5.056e-11   4.705e-11   -10.296   -10.327    -0.031     -4.72
H(0)          1.547e-39
   H2              7.736e-40   7.737e-40   -39.111   -39.111     0.000     14.99
O(0)          1.439e-14
   O2              7.195e-15   7.196e-15   -14.143   -14.143     0.000     30.40

------------------------------Saturation indices-------------------------------

  Phase               SI** log IAP   log K(298 K,   4 atm)

  CH4(g)         -117.53   -120.33   -2.80  CH4
  CO2(g)            0.59     -0.88   -1.47  CO2	 Pressure   4.0 atm, phi 0.978
  H2(g)           -36.01    -39.11   -3.10  H2
  H2O(g)           -1.50     -0.00    1.50  H2O	 Pressure   0.0 atm, phi 0.962
  O2(g)           -11.25    -14.14   -2.89  O2

**For a gas, SI = log10(fugacity). Fugacity = pressure * phi / 1 atm.
  For ideal gases, phi = 1.

Reaction step 4.

Using solution 1.	
Using gas phase 1.	
Using reaction 1.	

Reaction 1.	

	  1.000e-01 moles of the following reaction have been added:

	                 Relative
	Reactant            moles

	CO2                  1.00000

	                 Relative
	Element             moles
	C                    1.00000
	O                    2.00000

-----------------------------------Gas phase-----------------------------------

Total pressure:  5.35      atmospheres          (Peng-Robinson calculation)
    Gas volume:   1.00e+00 liters
  Molar volume:   4.43e+00 liters/mole
   P * Vm / RT:  0.96979  (Compressibility Factor Z) 

                                                        Moles in gas
                                            ----------------------------------
Component         log P           P    phi     Initial       Final       Delta

CO2(g)             0.73   5.319e+00  0.971   1.669e-01   2.242e-01   5.722e-02
H2O(g)            -1.48   3.309e-02  0.950   1.366e-03   1.395e-03   2.879e-05

-----------------------------Solution composition------------------------------

	Elements           Molality       Moles

	C                 1.758e-01   1.758e-01

----------------------------Description of solution----------------------------

                                       pH  =   3.554      Charge balance
                                       pe  =  14.495      Adjusted to redox equilibrium
      Specific Conductance (µS/cm,  25°C)  = 109
                          Density (g/cm³)  =   0.99887
                               Volume (L)  =   1.00885
                        Viscosity (mPa s)  =   0.90210
                        Activity of water  =   0.997
                 Ionic strength (mol/kgw)  =   2.843e-04
                       Mass of water (kg)  =   1.000e+00
                 Total alkalinity (eq/kg)  =   1.212e-09
                       Total CO2 (mol/kg)  =   1.758e-01
                         Temperature (°C)  =  25.00
                           Pressure (atm)  =  5.35
                  Electrical balance (eq)  =  -1.212e-09
 Percent error, 100*(Cat-|An|)/(Cat+|An|)  =  -0.00
                               Iterations  =  23
                                  Total H  = 1.110096e+02
                                  Total O  = 5.585650e+01

----------------------------Distribution of species----------------------------

                                               Log       Log       Log    mole V
   Species          Molality    Activity  Molality  Activity     Gamma   cm³/mol

   H+              2.843e-04   2.790e-04    -3.546    -3.554    -0.008      0.00
   OH-             3.703e-11   3.631e-11   -10.431   -10.440    -0.008     -4.11
   H2O             5.551e+01   9.970e-01     1.744    -0.001     0.000     18.07
C(-4)         0.000e+00
   CH4             0.000e+00   0.000e+00  -120.765  -120.765     0.000     35.46
C(4)          1.758e-01
   CO2             1.746e-01   1.746e-01    -0.758    -0.758     0.000     34.79
   (CO2)2          4.955e-04   4.955e-04    -3.305    -3.305     0.000     68.74
   HCO3-           2.843e-04   2.789e-04    -3.546    -3.555    -0.008     24.55
   CO3-2           5.089e-11   4.712e-11   -10.293   -10.327    -0.033     -4.70
H(0)          1.123e-39
   H2              5.617e-40   5.617e-40   -39.250   -39.250     0.000     14.99
O(0)          2.722e-14
   O2              1.361e-14   1.361e-14   -13.866   -13.866     0.000     30.39

------------------------------Saturation indices-------------------------------

  Phase               SI** log IAP   log K(298 K,   5 atm)

  CH4(g)         -117.96   -120.77   -2.80  CH4
  CO2(g)            0.71     -0.76   -1.47  CO2	 Pressure   5.3 atm, phi 0.971
  H2(g)           -36.15    -39.25   -3.10  H2
  H2O(g)           -1.50     -0.00    1.50  H2O	 Pressure   0.0 atm, phi 0.950
  O2(g)           -10.97    -13.87   -2.89  O2

**For a gas, SI = log10(fugacity). Fugacity = pressure * phi / 1 atm.
  For ideal gases, phi = 1.

Reaction step 5.

Using solution 1.	
Using gas phase 1.	
Using reaction 1.	

Reaction 1.	

	  1.000e-01 moles of the following reaction have been added:

	                 Relative
	Reactant            moles

	CO2                  1.00000

	                 Relative
	Element             moles
	C                    1.00000
	O                    2.00000

-----------------------------------Gas phase-----------------------------------

Total pressure:  6.68      atmospheres          (Peng-Robinson calculation)
    Gas volume:   1.00e+00 liters
  Molar volume:   3.53e+00 liters/mole
   P * Vm / RT:  0.96219  (Compressibility Factor Z) 

                                                        Moles in gas
                                            ----------------------------------
Component         log P           P    phi     Initial       Final       Delta

CO2(g)             0.82   6.643e+00  0.963   2.242e-01   2.822e-01   5.801e-02
H2O(g)            -1.47   3.353e-02  0.938   1.395e-03   1.424e-03   2.968e-05

-----------------------------Solution composition------------------------------

	Elements           Molality       Moles

	C                 2.178e-01   2.178e-01

----------------------------Description of solution----------------------------

                                       pH  =   3.508      Charge balance
                                       pe  =  14.572      Adjusted to redox equilibrium
      Specific Conductance (µS/cm,  25°C)  = 121
                          Density (g/cm³)  =   0.99932
                               Volume (L)  =   1.01025
                        Viscosity (mPa s)  =   0.90496
                        Activity of water  =   0.996
                 Ionic strength (mol/kgw)  =   3.167e-04
                       Mass of water (kg)  =   1.000e+00
                 Total alkalinity (eq/kg)  =   1.211e-09
                       Total CO2 (mol/kg)  =   2.178e-01
                         Temperature (°C)  =  25.00
                           Pressure (atm)  =  6.68
                  Electrical balance (eq)  =  -1.211e-09
 Percent error, 100*(Cat-|An|)/(Cat+|An|)  =  -0.00
                               Iterations  =  23
                                  Total H  = 1.110096e+02
                                  Total O  = 5.594044e+01

----------------------------Distribution of species----------------------------

                                               Log       Log       Log    mole V
   Species          Molality    Activity  Molality  Activity     Gamma   cm³/mol

   H+              3.167e-04   3.105e-04    -3.499    -3.508    -0.009      0.00
   OH-             3.332e-11   3.265e-11   -10.477   -10.486    -0.009     -4.10
   H2O             5.551e+01   9.963e-01     1.744    -0.002     0.000     18.06
C(-4)         0.000e+00
   CH4             0.000e+00   0.000e+00  -120.913  -120.913     0.000     35.46
C(4)          2.178e-01
   CO2             2.160e-01   2.160e-01    -0.666    -0.666     0.000     34.79
   (CO2)2          7.587e-04   7.587e-04    -3.120    -3.120     0.000     68.74
   HCO3-           3.167e-04   3.103e-04    -3.499    -3.508    -0.009     24.55
   CO3-2           5.118e-11   4.720e-11   -10.291   -10.326    -0.035     -4.68
H(0)          9.774e-40
   H2              4.887e-40   4.887e-40   -39.311   -39.311     0.000     14.99
O(0)          3.586e-14
   O2              1.793e-14   1.793e-14   -13.746   -13.746     0.000     30.39

------------------------------Saturation indices-------------------------------

  Phase               SI** log IAP   log K(298 K,   7 atm)

  CH4(g)         -118.11   -120.91   -2.81  CH4
  CO2(g)            0.81     -0.67   -1.47  CO2	 Pressure   6.6 atm, phi 0.963
  H2(g)           -36.21    -39.31   -3.10  H2
  H2O(g)           -1.50     -0.00    1.50  H2O	 Pressure   0.0 atm, phi 0.938
  O2(g)           -10.85    -13.75   -2.90  O2

**For a gas, SI = log10(fugacity). Fugacity = pressure * phi / 1 atm.
  For ideal gases, phi = 1.

Reaction step 6.

Using solution 1.	
Using gas phase 1.	
Using reaction 1.	

Reaction 1.	

	  1.000e-01 moles of the following reaction have been added:

	                 Relative
	Reactant            moles

	CO2                  1.00000

	                 Relative
	Element             moles
	C                    1.00000
	O                    2.00000

-----------------------------------Gas phase-----------------------------------

Total pressure:  8.00      atmospheres          (Peng-Robinson calculation)
    Gas volume:   1.00e+00 liters
  Molar volume:   2.92e+00 liters/mole
   P * Vm / RT:  0.95455  (Compressibility Factor Z) 

                                                        Moles in gas
                                            ----------------------------------
Component         log P           P    phi     Initial       Final       Delta

CO2(g)             0.90   7.963e+00  0.956   2.822e-01   3.410e-01   5.881e-02
H2O(g)            -1.47   3.398e-02  0.925   1.424e-03   1.455e-03   3.060e-05

-----------------------------Solution composition------------------------------

	Elements           Molality       Moles

	C                 2.590e-01   2.590e-01

----------------------------Description of solution----------------------------

                                       pH  =   3.470      Charge balance
                                       pe  =  14.618      Adjusted to redox equilibrium
      Specific Conductance (µS/cm,  25°C)  = 131
                          Density (g/cm³)  =   0.99975
                               Volume (L)  =   1.01162
                        Viscosity (mPa s)  =   0.90777
                        Activity of water  =   0.996
                 Ionic strength (mol/kgw)  =   3.456e-04
                       Mass of water (kg)  =   1.000e+00
                 Total alkalinity (eq/kg)  =   1.210e-09
                       Total CO2 (mol/kg)  =   2.590e-01
                         Temperature (°C)  =  25.00
                           Pressure (atm)  =  8.00
                  Electrical balance (eq)  =  -1.210e-09
 Percent error, 100*(Cat-|An|)/(Cat+|An|)  =  -0.00
                               Iterations  =  23
                                  Total H  = 1.110095e+02
                                  Total O  = 5.602279e+01

----------------------------Distribution of species----------------------------

                                               Log       Log       Log    mole V
   Species          Molality    Activity  Molality  Activity     Gamma   cm³/mol

   H+              3.456e-04   3.385e-04    -3.461    -3.470    -0.009      0.00
   OH-             3.061e-11   2.996e-11   -10.514   -10.523    -0.009     -4.09
   H2O             5.551e+01   9.956e-01     1.744    -0.002     0.000     18.06
C(-4)         0.000e+00
   CH4             0.000e+00   0.000e+00  -120.909  -120.909     0.000     35.47
C(4)          2.590e-01
   CO2             2.565e-01   2.565e-01    -0.591    -0.591     0.000     34.79
   (CO2)2          1.070e-03   1.070e-03    -2.971    -2.971     0.000     68.74
   HCO3-           3.456e-04   3.383e-04    -3.461    -3.471    -0.009     24.56
   CO3-2           5.144e-11   4.727e-11   -10.289   -10.325    -0.037     -4.67
H(0)          9.382e-40
   H2              4.691e-40   4.691e-40   -39.329   -39.329     0.000     15.00
O(0)          3.882e-14
   O2              1.941e-14   1.941e-14   -13.712   -13.712     0.000     30.39

------------------------------Saturation indices-------------------------------

  Phase               SI** log IAP   log K(298 K,   8 atm)

  CH4(g)         -118.10   -120.91   -2.81  CH4
  CO2(g)            0.88     -0.59   -1.47  CO2	 Pressure   8.0 atm, phi 0.956
  H2(g)           -36.23    -39.33   -3.10  H2
  H2O(g)           -1.50     -0.00    1.50  H2O	 Pressure   0.0 atm, phi 0.925
  O2(g)           -10.82    -13.71   -2.90  O2

**For a gas, SI = log10(fugacity). Fugacity = pressure * phi / 1 atm.
  For ideal gases, phi = 1.

Reaction step 7.

Using solution 1.	
Using gas phase 1.	
Using reaction 1.	

Reaction 1.	

	  1.000e-01 moles of the following reaction have been added:

	                 Relative
	Reactant            moles

	CO2                  1.00000

	                 Relative
	Element             moles
	C                    1.00000
	O                    2.00000

-----------------------------------Gas phase-----------------------------------

Total pressure:  9.31      atmospheres          (Peng-Robinson calculation)
    Gas volume:   1.00e+00 liters
  Molar volume:   2.49e+00 liters/mole
   P * Vm / RT:  0.94687  (Compressibility Factor Z) 

                                                        Moles in gas
                                            ----------------------------------
Component         log P           P    phi     Initial       Final       Delta

CO2(g)             0.97   9.281e+00  0.949   3.410e-01   4.006e-01   5.962e-02
H2O(g)            -1.46   3.443e-02  0.913   1.455e-03   1.486e-03   3.156e-05

-----------------------------Solution composition------------------------------

	Elements           Molality       Moles

	C                 2.994e-01   2.994e-01

----------------------------Description of solution----------------------------

                                       pH  =   3.439      Charge balance
                                       pe  =  14.650      Adjusted to redox equilibrium
      Specific Conductance (µS/cm,  25°C)  = 141
                          Density (g/cm³)  =   1.00018
                               Volume (L)  =   1.01297
                        Viscosity (mPa s)  =   0.91053
                        Activity of water  =   0.995
                 Ionic strength (mol/kgw)  =   3.717e-04
                       Mass of water (kg)  =   1.000e+00
                 Total alkalinity (eq/kg)  =   1.209e-09
                       Total CO2 (mol/kg)  =   2.994e-01
                         Temperature (°C)  =  25.00
                           Pressure (atm)  =  9.31
                  Electrical balance (eq)  =  -1.209e-09
 Percent error, 100*(Cat-|An|)/(Cat+|An|)  =  -0.00
                               Iterations  =  24
                                  Total H  = 1.110095e+02
                                  Total O  = 5.610352e+01

----------------------------Distribution of species----------------------------

                                               Log       Log       Log    mole V
   Species          Molality    Activity  Molality  Activity     Gamma   cm³/mol

   H+              3.717e-04   3.639e-04    -3.430    -3.439    -0.009      0.00
   OH-             2.851e-11   2.788e-11   -10.545   -10.555    -0.010     -4.09
   H2O             5.551e+01   9.949e-01     1.744    -0.002     0.000     18.06
C(-4)         0.000e+00
   CH4             0.000e+00   0.000e+00  -120.852  -120.852     0.000     35.47
C(4)          2.994e-01
   CO2             2.962e-01   2.962e-01    -0.528    -0.528     0.000     34.78
   (CO2)2          1.427e-03   1.427e-03    -2.846    -2.846     0.000     68.73
   HCO3-           3.717e-04   3.637e-04    -3.430    -3.439    -0.010     24.56
   CO3-2           5.167e-11   4.734e-11   -10.287   -10.325    -0.038     -4.65
H(0)          9.344e-40
   H2              4.672e-40   4.672e-40   -39.331   -39.330     0.000     15.00
O(0)          3.903e-14
   O2              1.951e-14   1.952e-14   -13.710   -13.710     0.000     30.39

------------------------------Saturation indices-------------------------------

  Phase               SI** log IAP   log K(298 K,   9 atm)

  CH4(g)         -118.05   -120.85   -2.81  CH4
  CO2(g)            0.94     -0.53   -1.47  CO2	 Pressure   9.3 atm, phi 0.949
  H2(g)           -36.23    -39.33   -3.10  H2
  H2O(g)           -1.50     -0.00    1.50  H2O	 Pressure   0.0 atm, phi 0.913
  O2(g)           -10.81    -13.71   -2.90  O2

**For a gas, SI = log10(fugacity). Fugacity = pressure * phi / 1 atm.
  For ideal gases, phi = 1.

Reaction step 8.

Using solution 1.	
Using gas phase 1.	
Using reaction 1.	

Reaction 1.	

	  1.000e-01 moles of the following reaction have been added:

	                 Relative
	Reactant            moles

	CO2                  1.00000

	                 Relative
	Element             moles
	C                    1.00000
	O                    2.00000

-----------------------------------Gas phase-----------------------------------

Total pressure: 10.63      atmospheres          (Peng-Robinson calculation)
    Gas volume:   1.00e+00 liters
  Molar volume:   2.16e+00 liters/mole
   P * Vm / RT:  0.93915  (Compressibility Factor Z) 

                                                        Moles in gas
                                            ----------------------------------
Component         log P           P    phi     Initial       Final       Delta

CO2(g)             1.03   1.059e+01  0.942   4.006e-01   4.610e-01   6.043e-02
H2O(g)            -1.46   3.490e-02  0.901   1.486e-03   1.519e-03   3.254e-05

-----------------------------Solution composition------------------------------

	Elements           Molality       Moles

	C                 3.390e-01   3.390e-01

----------------------------Description of solution----------------------------

                                       pH  =   3.412      Charge balance
                                       pe  =  14.690      Adjusted to redox equilibrium
      Specific Conductance (µS/cm,  25°C)  = 149
                          Density (g/cm³)  =   1.00060
                               Volume (L)  =   1.01428
                        Viscosity (mPa s)  =   0.91322
                        Activity of water  =   0.994
                 Ionic strength (mol/kgw)  =   3.957e-04
                       Mass of water (kg)  =   1.000e+00
                 Total alkalinity (eq/kg)  =   1.209e-09
                       Total CO2 (mol/kg)  =   3.390e-01
                         Temperature (°C)  =  25.00
                           Pressure (atm)  = 10.63
                  Electrical balance (eq)  =  -1.209e-09
 Percent error, 100*(Cat-|An|)/(Cat+|An|)  =  -0.00
                               Iterations  =  24
                                  Total H  = 1.110094e+02
                                  Total O  = 5.618262e+01

----------------------------Distribution of species----------------------------

                                               Log       Log       Log    mole V
   Species          Molality    Activity  Molality  Activity     Gamma   cm³/mol

   H+              3.957e-04   3.871e-04    -3.403    -3.412    -0.010      0.00
   OH-             2.683e-11   2.622e-11   -10.571   -10.581    -0.010     -4.08
   H2O             5.551e+01   9.943e-01     1.744    -0.002     0.000     18.06
C(-4)         0.000e+00
   CH4             0.000e+00   0.000e+00  -120.905  -120.905     0.000     35.47
C(4)          3.390e-01
   CO2             3.349e-01   3.350e-01    -0.475    -0.475     0.000     34.78
   (CO2)2          1.824e-03   1.825e-03    -2.739    -2.739     0.000     68.73
   HCO3-           3.957e-04   3.869e-04    -3.403    -3.412    -0.010     24.57
   CO3-2           5.189e-11   4.742e-11   -10.285   -10.324    -0.039     -4.64
H(0)          8.786e-40
   H2              4.393e-40   4.393e-40   -39.357   -39.357     0.000     15.00
O(0)          4.403e-14
   O2              2.201e-14   2.202e-14   -13.657   -13.657     0.000     30.39

------------------------------Saturation indices-------------------------------

  Phase               SI** log IAP   log K(298 K,  11 atm)

  CH4(g)         -118.10   -120.90   -2.81  CH4
  CO2(g)            1.00     -0.48   -1.47  CO2	 Pressure  10.6 atm, phi 0.942
  H2(g)           -36.26    -39.36   -3.10  H2
  H2O(g)           -1.50     -0.00    1.50  H2O	 Pressure   0.0 atm, phi 0.901
  O2(g)           -10.76    -13.66   -2.90  O2

**For a gas, SI = log10(fugacity). Fugacity = pressure * phi / 1 atm.
  For ideal gases, phi = 1.

Reaction step 9.

Using solution 1.	
Using gas phase 1.	
Using reaction 1.	

Reaction 1.	

	  1.000e-01 moles of the following reaction have been added:

	                 Relative
	Reactant            moles

	CO2                  1.00000

	                 Relative
	Element             moles
	C                    1.00000
	O                    2.00000

-----------------------------------Gas phase-----------------------------------

Total pressure: 11.94      atmospheres          (Peng-Robinson calculation)
    Gas volume:   1.00e+00 liters
  Molar volume:   1.91e+00 liters/mole
   P * Vm / RT:  0.93139  (Compressibility Factor Z) 

                                                        Moles in gas
                                            ----------------------------------
Component         log P           P    phi     Initial       Final       Delta

CO2(g)             1.08   1.190e+01  0.935   4.610e-01   5.223e-01   6.125e-02
H2O(g)            -1.45   3.538e-02  0.890   1.519e-03   1.552e-03   3.356e-05

-----------------------------Solution composition------------------------------

	Elements           Molality       Moles

	C                 3.777e-01   3.777e-01

----------------------------Description of solution----------------------------

                                       pH  =   3.389      Charge balance
                                       pe  =  14.690      Adjusted to redox equilibrium
      Specific Conductance (µS/cm,  25°C)  = 157
                          Density (g/cm³)  =   1.00101
                               Volume (L)  =   1.01557
                        Viscosity (mPa s)  =   0.91586
                        Activity of water  =   0.994
                 Ionic strength (mol/kgw)  =   4.179e-04
                       Mass of water (kg)  =   1.000e+00
                 Total alkalinity (eq/kg)  =   1.208e-09
                       Total CO2 (mol/kg)  =   3.777e-01
                         Temperature (°C)  =  25.00
                           Pressure (atm)  = 11.94
                  Electrical balance (eq)  =  -1.208e-09
 Percent error, 100*(Cat-|An|)/(Cat+|An|)  =  -0.00
                               Iterations  =  24
                                  Total H  = 1.110093e+02
                                  Total O  = 5.626009e+01

----------------------------Distribution of species----------------------------

                                               Log       Log       Log    mole V
   Species          Molality    Activity  Molality  Activity     Gamma   cm³/mol

   H+              4.179e-04   4.086e-04    -3.379    -3.389    -0.010      0.00
   OH-             2.545e-11   2.486e-11   -10.594   -10.605    -0.010     -4.08
   H2O             5.551e+01   9.936e-01     1.744    -0.003     0.000     18.06
C(-4)         0.000e+00
   CH4             0.000e+00   0.000e+00  -120.667  -120.667     0.000     35.47
C(4)          3.777e-01
   CO2             3.728e-01   3.728e-01    -0.429    -0.429     0.000     34.78
   (CO2)2          2.260e-03   2.260e-03    -2.646    -2.646     0.000     68.73
   HCO3-           4.179e-04   4.084e-04    -3.379    -3.389    -0.010     24.57
   CO3-2           5.210e-11   4.749e-11   -10.283   -10.323    -0.040     -4.62
H(0)          9.800e-40
   H2              4.900e-40   4.900e-40   -39.310   -39.310     0.000     15.00
O(0)          3.529e-14
   O2              1.765e-14   1.765e-14   -13.753   -13.753     0.000     30.38

------------------------------Saturation indices-------------------------------

  Phase               SI** log IAP   log K(298 K,  12 atm)

  CH4(g)         -117.86   -120.67   -2.81  CH4
  CO2(g)            1.05     -0.43   -1.47  CO2	 Pressure  11.9 atm, phi 0.935
  H2(g)           -36.21    -39.31   -3.10  H2
  H2O(g)           -1.50     -0.00    1.50  H2O	 Pressure   0.0 atm, phi 0.890
  O2(g)           -10.86    -13.75   -2.90  O2

**For a gas, SI = log10(fugacity). Fugacity = pressure * phi / 1 atm.
  For ideal gases, phi = 1.

Reaction step 10.

Using solution 1.	
Using gas phase 1.	
Using reaction 1.	

Reaction 1.	

	  1.000e-01 moles of the following reaction have been added:

	                 Relative
	Reactant            moles

	CO2                  1.00000

	                 Relative
	Element             moles
	C                    1.00000
	O                    2.00000

-----------------------------------Gas phase-----------------------------------

Total pressure: 13.24      atmospheres          (Peng-Robinson calculation)
    Gas volume:   1.00e+00 liters
  Molar volume:   1.71e+00 liters/mole
   P * Vm / RT:  0.92359  (Compressibility Factor Z) 

                                                        Moles in gas
                                            ----------------------------------
Component         log P           P    phi     Initial       Final       Delta

CO2(g)             1.12   1.320e+01  0.928   5.223e-01   5.844e-01   6.207e-02
H2O(g)            -1.45   3.586e-02  0.878   1.552e-03   1.587e-03   3.461e-05

-----------------------------Solution composition------------------------------

	Elements           Molality       Moles

	C                 4.157e-01   4.156e-01

----------------------------Description of solution----------------------------

                                       pH  =   3.368      Charge balance
                                       pe  =  14.687      Adjusted to redox equilibrium
      Specific Conductance (µS/cm,  25°C)  = 164
                          Density (g/cm³)  =   1.00142
                               Volume (L)  =   1.01682
                        Viscosity (mPa s)  =   0.91845
                        Activity of water  =   0.993
                 Ionic strength (mol/kgw)  =   4.386e-04
                       Mass of water (kg)  =   1.000e+00
                 Total alkalinity (eq/kg)  =   1.208e-09
                       Total CO2 (mol/kg)  =   4.157e-01
                         Temperature (°C)  =  25.00
                           Pressure (atm)  = 13.24
                  Electrical balance (eq)  =  -1.208e-09
 Percent error, 100*(Cat-|An|)/(Cat+|An|)  =  -0.00
                               Iterations  =  24
                                  Total H  = 1.110093e+02
                                  Total O  = 5.633591e+01

----------------------------Distribution of species----------------------------

                                               Log       Log       Log    mole V
   Species          Molality    Activity  Molality  Activity     Gamma   cm³/mol

   H+              4.386e-04   4.285e-04    -3.358    -3.368    -0.010      0.00
   OH-             2.429e-11   2.371e-11   -10.615   -10.625    -0.010     -4.07
   H2O             5.551e+01   9.930e-01     1.744    -0.003     0.000     18.06
C(-4)         0.000e+00
   CH4             0.000e+00   0.000e+00  -120.443  -120.443     0.000     35.47
C(4)          4.157e-01
   CO2             4.098e-01   4.098e-01    -0.387    -0.387     0.000     34.78
   (CO2)2          2.731e-03   2.731e-03    -2.564    -2.564     0.000     68.72
   HCO3-           4.386e-04   4.283e-04    -3.358    -3.368    -0.010     24.58
   CO3-2           5.229e-11   4.756e-11   -10.282   -10.323    -0.041     -4.61
H(0)          1.089e-39
   H2              5.443e-40   5.443e-40   -39.264   -39.264     0.000     15.00
O(0)          2.853e-14
   O2              1.426e-14   1.427e-14   -13.846   -13.846     0.000     30.38

------------------------------Saturation indices-------------------------------

  Phase               SI** log IAP   log K(298 K,  13 atm)

  CH4(g)         -117.63   -120.44   -2.81  CH4
  CO2(g)            1.09     -0.39   -1.48  CO2	 Pressure  13.2 atm, phi 0.928
  H2(g)           -36.16    -39.26   -3.10  H2
  H2O(g)           -1.50     -0.00    1.50  H2O	 Pressure   0.0 atm, phi 0.878
  O2(g)           -10.95    -13.85   -2.90  O2

**For a gas, SI = log10(fugacity). Fugacity = pressure * phi / 1 atm.
  For ideal gases, phi = 1.

Reaction step 11.

Using solution 1.	
Using gas phase 1.	
Using reaction 1.	

Reaction 1.	

	  5.000e-01 moles of the following reaction have been added:

	                 Relative
	Reactant            moles

	CO2                  1.00000

	                 Relative
	Element             moles
	C                    1.00000
	O                    2.00000

-----------------------------------Gas phase-----------------------------------

Total pressure: 19.66      atmospheres          (Peng-Robinson calculation)
    Gas volume:   1.00e+00 liters
  Molar volume:   1.10e+00 liters/mole
   P * Vm / RT:  0.88404  (Compressibility Factor Z) 

                                                        Moles in gas
                                            ----------------------------------
Component         log P           P    phi     Initial       Final       Delta

CO2(g)             1.29   1.962e+01  0.894   5.844e-01   9.073e-01   3.229e-01
H2O(g)            -1.42   3.844e-02  0.820   1.587e-03   1.777e-03   1.900e-04

-----------------------------Solution composition------------------------------

	Elements           Molality       Moles

	C                 5.928e-01   5.927e-01

----------------------------Description of solution----------------------------

                                       pH  =   3.291      Charge balance
                                       pe  =  14.775      Adjusted to redox equilibrium
      Specific Conductance (µS/cm,  25°C)  = 194
                          Density (g/cm³)  =   1.00330
                               Volume (L)  =   1.02268
                        Viscosity (mPa s)  =   0.93050
                        Activity of water  =   0.990
                 Ionic strength (mol/kgw)  =   5.246e-04
                       Mass of water (kg)  =   1.000e+00
                 Total alkalinity (eq/kg)  =   1.207e-09
                       Total CO2 (mol/kg)  =   5.928e-01
                         Temperature (°C)  =  25.00
                           Pressure (atm)  = 19.66
                  Electrical balance (eq)  =  -1.207e-09
 Percent error, 100*(Cat-|An|)/(Cat+|An|)  =  -0.00
                               Iterations  =  28
                                  Total H  = 1.110089e+02
                                  Total O  = 5.668992e+01

----------------------------Distribution of species----------------------------

                                               Log       Log       Log    mole V
   Species          Molality    Activity  Molality  Activity     Gamma   cm³/mol

   H+              5.246e-04   5.116e-04    -3.280    -3.291    -0.011      0.00
   OH-             2.045e-11   1.992e-11   -10.689   -10.701    -0.011     -4.05
   H2O             5.551e+01   9.900e-01     1.744    -0.004     0.000     18.05
C(-4)         0.000e+00
   CH4             0.000e+00   0.000e+00  -120.378  -120.378     0.000     35.48
C(4)          5.928e-01
   CO2             5.812e-01   5.813e-01    -0.236    -0.236     0.000     34.77
   (CO2)2          5.496e-03   5.497e-03    -2.260    -2.260     0.000     68.71
   HCO3-           5.246e-04   5.112e-04    -3.280    -3.291    -0.011     24.60
   CO3-2           5.314e-11   4.792e-11   -10.275   -10.319    -0.045     -4.54
H(0)          1.032e-39
   H2              5.159e-40   5.160e-40   -39.287   -39.287     0.000     15.00
O(0)          3.136e-14
   O2              1.568e-14   1.568e-14   -13.805   -13.805     0.000     30.37

------------------------------Saturation indices-------------------------------

  Phase               SI** log IAP   log K(298 K,  20 atm)

  CH4(g)         -117.56   -120.38   -2.81  CH4
  CO2(g)            1.24     -0.24   -1.48  CO2	 Pressure  19.6 atm, phi 0.894
  H2(g)           -36.18    -39.29   -3.10  H2
  H2O(g)           -1.50     -0.00    1.50  H2O	 Pressure   0.0 atm, phi 0.820
  O2(g)           -10.90    -13.80   -2.90  O2

**For a gas, SI = log10(fugacity). Fugacity = pressure * phi / 1 atm.
  For ideal gases, phi = 1.

Reaction step 12.

Using solution 1.	
Using gas phase 1.	
Using reaction 1.	

Reaction 1.	

	  5.000e-01 moles of the following reaction have been added:

	                 Relative
	Reactant            moles

	CO2                  1.00000

	                 Relative
	Element             moles
	C                    1.00000
	O                    2.00000

-----------------------------------Gas phase-----------------------------------

Total pressure: 25.87      atmospheres          (Peng-Robinson calculation)
    Gas volume:   1.00e+00 liters
  Molar volume:   7.98e-01 liters/mole
   P * Vm / RT:  0.84374  (Compressibility Factor Z) 

                                                        Moles in gas
                                            ----------------------------------
Component         log P           P    phi     Initial       Final       Delta

CO2(g)             1.41   2.583e+01  0.861   9.073e-01   1.251e+00   3.440e-01
H2O(g)            -1.38   4.126e-02  0.766   1.777e-03   1.999e-03   2.217e-04

-----------------------------Solution composition------------------------------

	Elements           Molality       Moles

	C                 7.488e-01   7.488e-01

----------------------------Description of solution----------------------------

                                       pH  =   3.240      Charge balance
                                       pe  =  14.830      Adjusted to redox equilibrium
      Specific Conductance (µS/cm,  25°C)  = 215
                          Density (g/cm³)  =   1.00497
                               Volume (L)  =   1.02781
                        Viscosity (mPa s)  =   0.94109
                        Activity of water  =   0.987
                 Ionic strength (mol/kgw)  =   5.904e-04
                       Mass of water (kg)  =   1.000e+00
                 Total alkalinity (eq/kg)  =   1.207e-09
                       Total CO2 (mol/kg)  =   7.488e-01
                         Temperature (°C)  =  25.00
                           Pressure (atm)  = 25.87
                  Electrical balance (eq)  =  -1.207e-09
 Percent error, 100*(Cat-|An|)/(Cat+|An|)  =  -0.00
                               Iterations  =  28
                                  Total H  = 1.110084e+02
                                  Total O  = 5.700173e+01

----------------------------Distribution of species----------------------------

                                               Log       Log       Log    mole V
   Species          Molality    Activity  Molality  Activity     Gamma   cm³/mol

   H+              5.904e-04   5.749e-04    -3.229    -3.240    -0.012      0.00
   OH-             1.828e-11   1.778e-11   -10.738   -10.750    -0.012     -4.02
   H2O             5.551e+01   9.874e-01     1.744    -0.006     0.000     18.05
C(-4)         0.000e+00
   CH4             0.000e+00   0.000e+00  -120.311  -120.310     0.000     35.49
C(4)          7.488e-01
   CO2             7.308e-01   7.309e-01    -0.136    -0.136     0.000     34.77
   (CO2)2          8.691e-03   8.692e-03    -2.061    -2.061     0.000     68.70
   HCO3-           5.904e-04   5.745e-04    -3.229    -3.241    -0.012     24.62
   CO3-2           5.385e-11   4.827e-11   -10.269   -10.316    -0.047     -4.48
H(0)          1.010e-39
   H2              5.052e-40   5.053e-40   -39.297   -39.296     0.000     15.01
O(0)          3.233e-14
   O2              1.617e-14   1.617e-14   -13.791   -13.791     0.000     30.36

------------------------------Saturation indices-------------------------------

  Phase               SI** log IAP   log K(298 K,  26 atm)

  CH4(g)         -117.49   -120.31   -2.82  CH4
  CO2(g)            1.35     -0.14   -1.48  CO2	 Pressure  25.8 atm, phi 0.861
  H2(g)           -36.19    -39.30   -3.11  H2
  H2O(g)           -1.50     -0.01    1.49  H2O	 Pressure   0.0 atm, phi 0.766
  O2(g)           -10.89    -13.79   -2.91  O2

**For a gas, SI = log10(fugacity). Fugacity = pressure * phi / 1 atm.
  For ideal gases, phi = 1.

Reaction step 13.

Using solution 1.	
Using gas phase 1.	
Using reaction 1.	

Reaction 1.	

	  5.000e-01 moles of the following reaction have been added:

	                 Relative
	Reactant            moles

	CO2                  1.00000

	                 Relative
	Element             moles
	C                    1.00000
	O                    2.00000

-----------------------------------Gas phase-----------------------------------

Total pressure: 31.79      atmospheres          (Peng-Robinson calculation)
    Gas volume:   1.00e+00 liters
  Molar volume:   6.18e-01 liters/mole
   P * Vm / RT:  0.80294  (Compressibility Factor Z) 

                                                        Moles in gas
                                            ----------------------------------
Component         log P           P    phi     Initial       Final       Delta

CO2(g)             1.50   3.175e+01  0.831   1.251e+00   1.616e+00   3.650e-01
H2O(g)            -1.35   4.434e-02  0.714   1.999e-03   2.257e-03   2.584e-04

-----------------------------Solution composition------------------------------

	Elements           Molality       Moles

	C                 8.838e-01   8.838e-01

----------------------------Description of solution----------------------------

                                       pH  =   3.204      Charge balance
                                       pe  =  14.878      Adjusted to redox equilibrium
      Specific Conductance (µS/cm,  25°C)  = 232
                          Density (g/cm³)  =   1.00642
                               Volume (L)  =   1.03223
                        Viscosity (mPa s)  =   0.95025
                        Activity of water  =   0.985
                 Ionic strength (mol/kgw)  =   6.423e-04
                       Mass of water (kg)  =   9.999e-01
                 Total alkalinity (eq/kg)  =   1.207e-09
                       Total CO2 (mol/kg)  =   8.838e-01
                         Temperature (°C)  =  25.00
                           Pressure (atm)  = 31.79
                  Electrical balance (eq)  =  -1.207e-09
 Percent error, 100*(Cat-|An|)/(Cat+|An|)  =  -0.00
                               Iterations  =  28
                                  Total H  = 1.110079e+02
                                  Total O  = 5.727152e+01

----------------------------Distribution of species----------------------------

                                               Log       Log       Log    mole V
   Species          Molality    Activity  Molality  Activity     Gamma   cm³/mol

   H+              6.423e-04   6.248e-04    -3.192    -3.204    -0.012      0.00
   OH-             1.689e-11   1.641e-11   -10.772   -10.785    -0.013     -4.00
   H2O             5.551e+01   9.852e-01     1.744    -0.006     0.000     18.04
C(-4)         0.000e+00
   CH4             0.000e+00   0.000e+00  -120.343  -120.343     0.000     35.50
C(4)          8.838e-01
   CO2             8.592e-01   8.592e-01    -0.066    -0.066     0.000     34.76
   (CO2)2          1.201e-02   1.202e-02    -1.920    -1.920     0.000     68.68
   HCO3-           6.423e-04   6.243e-04    -3.192    -3.205    -0.012     24.64
   CO3-2           5.446e-11   4.861e-11   -10.264   -10.313    -0.049     -4.42
H(0)          9.500e-40
   H2              4.750e-40   4.751e-40   -39.323   -39.323     0.000     15.01
O(0)          3.619e-14
   O2              1.809e-14   1.810e-14   -13.742   -13.742     0.000     30.36

------------------------------Saturation indices-------------------------------

  Phase               SI** log IAP   log K(298 K,  32 atm)

  CH4(g)         -117.52   -120.34   -2.82  CH4
  CO2(g)            1.42     -0.07   -1.49  CO2	 Pressure  31.8 atm, phi 0.831
  H2(g)           -36.22    -39.32   -3.11  H2
  H2O(g)           -1.50     -0.01    1.49  H2O	 Pressure   0.0 atm, phi 0.714
  O2(g)           -10.83    -13.74   -2.91  O2

**For a gas, SI = log10(fugacity). Fugacity = pressure * phi / 1 atm.
  For ideal gases, phi = 1.

Reaction step 14.

Using solution 1.	
Using gas phase 1.	
Using reaction 1.	

Reaction 1.	

	  5.000e-01 moles of the following reaction have been added:

	                 Relative
	Reactant            moles

	CO2                  1.00000

	                 Relative
	Element             moles
	C                    1.00000
	O                    2.00000

-----------------------------------Gas phase-----------------------------------

Total pressure: 37.36      atmospheres          (Peng-Robinson calculation)
    Gas volume:   1.00e+00 liters
  Molar volume:   4.99e-01 liters/mole
   P * Vm / RT:  0.76192  (Compressibility Factor Z) 

                                                        Moles in gas
                                            ----------------------------------
Component         log P           P    phi     Initial       Final       Delta

CO2(g)             1.57   3.731e+01  0.802   1.616e+00   2.002e+00   3.854e-01
H2O(g)            -1.32   4.767e-02  0.666   2.257e-03   2.557e-03   3.003e-04

-----------------------------Solution composition------------------------------

	Elements           Molality       Moles

	C                 9.985e-01   9.984e-01

----------------------------Description of solution----------------------------

                                       pH  =   3.178      Charge balance
                                       pe  =  14.922      Adjusted to redox equilibrium
      Specific Conductance (µS/cm,  25°C)  = 244
                          Density (g/cm³)  =   1.00767
                               Volume (L)  =   1.03594
                        Viscosity (mPa s)  =   0.95801
                        Activity of water  =   0.983
                 Ionic strength (mol/kgw)  =   6.836e-04
                       Mass of water (kg)  =   9.999e-01
                 Total alkalinity (eq/kg)  =   1.207e-09
                       Total CO2 (mol/kg)  =   9.985e-01
                         Temperature (°C)  =  25.00
                           Pressure (atm)  = 37.36
                  Electrical balance (eq)  =  -1.207e-09
 Percent error, 100*(Cat-|An|)/(Cat+|An|)  =  -0.00
                               Iterations  =  27
                                  Total H  = 1.110073e+02
                                  Total O  = 5.750050e+01

----------------------------Distribution of species----------------------------

                                               Log       Log       Log    mole V
   Species          Molality    Activity  Molality  Activity     Gamma   cm³/mol

   H+              6.836e-04   6.645e-04    -3.165    -3.178    -0.012      0.00
   OH-             1.594e-11   1.548e-11   -10.797   -10.810    -0.013     -3.98
   H2O             5.551e+01   9.833e-01     1.744    -0.007     0.000     18.04
C(-4)         0.000e+00
   CH4             0.000e+00   0.000e+00  -120.428  -120.428     0.000     35.51
C(4)          9.985e-01
   CO2             9.673e-01   9.674e-01    -0.014    -0.014     0.000     34.75
   (CO2)2          1.523e-02   1.523e-02    -1.817    -1.817     0.000     68.67
   HCO3-           6.836e-04   6.639e-04    -3.165    -3.178    -0.013     24.66
   CO3-2           5.501e-11   4.892e-11   -10.260   -10.310    -0.051     -4.37
H(0)          8.761e-40
   H2              4.381e-40   4.381e-40   -39.358   -39.358     0.000     15.02
O(0)          4.215e-14
   O2              2.108e-14   2.108e-14   -13.676   -13.676     0.000     30.35

------------------------------Saturation indices-------------------------------

  Phase               SI** log IAP   log K(298 K,  37 atm)

  CH4(g)         -117.60   -120.43   -2.82  CH4
  CO2(g)            1.48     -0.01   -1.49  CO2	 Pressure  37.3 atm, phi 0.802
  H2(g)           -36.25    -39.36   -3.11  H2
  H2O(g)           -1.50     -0.01    1.49  H2O	 Pressure   0.0 atm, phi 0.666
  O2(g)           -10.76    -13.68   -2.91  O2

**For a gas, SI = log10(fugacity). Fugacity = pressure * phi / 1 atm.
  For ideal gases, phi = 1.

Reaction step 15.

Using solution 1.	
Using gas phase 1.	
Using reaction 1.	

Reaction 1.	

	  5.000e-01 moles of the following reaction have been added:

	                 Relative
	Reactant            moles

	CO2                  1.00000

	                 Relative
	Element             moles
	C                    1.00000
	O                    2.00000

-----------------------------------Gas phase-----------------------------------

Total pressure: 42.50      atmospheres          (Peng-Robinson calculation)
    Gas volume:   1.00e+00 liters
  Molar volume:   4.15e-01 liters/mole
   P * Vm / RT:  0.72101  (Compressibility Factor Z) 

                                                        Moles in gas
                                            ----------------------------------
Component         log P           P    phi     Initial       Final       Delta

CO2(g)             1.63   4.245e+01  0.776   2.002e+00   2.406e+00   4.046e-01
H2O(g)            -1.29   5.125e-02  0.621   2.557e-03   2.905e-03   3.476e-04

-----------------------------Solution composition------------------------------

	Elements           Molality       Moles

	C                 1.094e+00   1.094e+00

----------------------------Description of solution----------------------------

                                       pH  =   3.157      Charge balance
                                       pe  =  14.936      Adjusted to redox equilibrium
      Specific Conductance (µS/cm,  25°C)  = 254
                          Density (g/cm³)  =   1.00873
                               Volume (L)  =   1.03901
                        Viscosity (mPa s)  =   0.96446
                        Activity of water  =   0.982
                 Ionic strength (mol/kgw)  =   7.165e-04
                       Mass of water (kg)  =   9.999e-01
                 Total alkalinity (eq/kg)  =   1.207e-09
                       Total CO2 (mol/kg)  =   1.094e+00
                         Temperature (°C)  =  25.00
                           Pressure (atm)  = 42.50
                  Electrical balance (eq)  =  -1.207e-09
 Percent error, 100*(Cat-|An|)/(Cat+|An|)  =  -0.00
                               Iterations  =  25
                                  Total H  = 1.110066e+02
                                  Total O  = 5.769092e+01

----------------------------Distribution of species----------------------------

                                               Log       Log       Log    mole V
   Species          Molality    Activity  Molality  Activity     Gamma   cm³/mol

   H+              7.165e-04   6.960e-04    -3.145    -3.157    -0.013      0.00
   OH-             1.528e-11   1.482e-11   -10.816   -10.829    -0.013     -3.96
   H2O             5.551e+01   9.817e-01     1.744    -0.008     0.000     18.04
C(-4)         0.000e+00
   CH4             0.000e+00   0.000e+00  -120.345  -120.345     0.000     35.51
C(4)          1.094e+00
   CO2             1.057e+00   1.057e+00     0.024     0.024     0.000     34.75
   (CO2)2          1.818e-02   1.819e-02    -1.740    -1.740     0.000     68.66
   HCO3-           7.165e-04   6.954e-04    -3.145    -3.158    -0.013     24.68
   CO3-2           5.548e-11   4.922e-11   -10.256   -10.308    -0.052     -4.32
H(0)          8.969e-40
   H2              4.485e-40   4.485e-40   -39.348   -39.348     0.000     15.02
O(0)          3.989e-14
   O2              1.995e-14   1.995e-14   -13.700   -13.700     0.000     30.34

------------------------------Saturation indices-------------------------------

  Phase               SI** log IAP   log K(298 K,  42 atm)

  CH4(g)         -117.52   -120.35   -2.83  CH4
  CO2(g)            1.52      0.02   -1.49  CO2	 Pressure  42.4 atm, phi 0.776
  H2(g)           -36.24    -39.35   -3.11  H2
  H2O(g)           -1.50     -0.01    1.49  H2O	 Pressure   0.1 atm, phi 0.621
  O2(g)           -10.79    -13.70   -2.91  O2

**For a gas, SI = log10(fugacity). Fugacity = pressure * phi / 1 atm.
  For ideal gases, phi = 1.

Reaction step 16.

Using solution 1.	
Using gas phase 1.	
Using reaction 1.	

Reaction 1.	

	  2.000e+00 moles of the following reaction have been added:

	                 Relative
	Reactant            moles

	CO2                  1.00000

	                 Relative
	Element             moles
	C                    1.00000
	O                    2.00000

-----------------------------------Gas phase-----------------------------------

Total pressure: 57.84      atmospheres          (Peng-Robinson calculation)
    Gas volume:   1.00e+00 liters
  Molar volume:   2.39e-01 liters/mole
   P * Vm / RT:  0.56459  (Compressibility Factor Z) 

                                                        Moles in gas
                                            ----------------------------------
Component         log P           P    phi     Initial       Final       Delta

CO2(g)             1.76   5.777e+01  0.698   2.406e+00   4.182e+00   1.776e+00
H2O(g)            -1.17   6.736e-02  0.476   2.905e-03   4.876e-03   1.971e-03

-----------------------------Solution composition------------------------------

	Elements           Molality       Moles

	C                 1.318e+00   1.318e+00

----------------------------Description of solution----------------------------

                                       pH  =   3.115      Charge balance
                                       pe  =  14.997      Adjusted to redox equilibrium
      Specific Conductance (µS/cm,  25°C)  = 275
                          Density (g/cm³)  =   1.01134
                               Volume (L)  =   1.04604
                        Viscosity (mPa s)  =   0.97954
                        Activity of water  =   0.978
                 Ionic strength (mol/kgw)  =   7.904e-04
                       Mass of water (kg)  =   9.999e-01
                 Total alkalinity (eq/kg)  =   1.207e-09
                       Total CO2 (mol/kg)  =   1.318e+00
                         Temperature (°C)  =  25.00
                           Pressure (atm)  = 57.84
                  Electrical balance (eq)  =  -1.206e-09
 Percent error, 100*(Cat-|An|)/(Cat+|An|)  =  -0.00
                               Iterations  =  30
                                  Total H  = 1.110027e+02
                                  Total O  = 5.813657e+01

----------------------------Distribution of species----------------------------

                                               Log       Log       Log    mole V
   Species          Molality    Activity  Molality  Activity     Gamma   cm³/mol

   H+              7.904e-04   7.667e-04    -3.102    -3.115    -0.013      0.00
   OH-             1.403e-11   1.359e-11   -10.853   -10.867    -0.014     -3.90
   H2O             5.551e+01   9.780e-01     1.744    -0.010     0.000     18.02
C(-4)         0.000e+00
   CH4             0.000e+00   0.000e+00  -120.426  -120.426     0.000     35.53
C(4)          1.318e+00
   CO2             1.265e+00   1.265e+00     0.102     0.102     0.000     34.73
   (CO2)2          2.606e-02   2.607e-02    -1.584    -1.584     0.000     68.63
   HCO3-           7.904e-04   7.660e-04    -3.102    -3.116    -0.014     24.72
   CO3-2           5.680e-11   5.011e-11   -10.246   -10.300    -0.054     -4.17
H(0)          8.140e-40
   H2              4.070e-40   4.071e-40   -39.390   -39.390     0.000     15.03
O(0)          4.733e-14
   O2              2.367e-14   2.367e-14   -13.626   -13.626     0.000     30.32

------------------------------Saturation indices-------------------------------

  Phase               SI** log IAP   log K(298 K,  58 atm)

  CH4(g)         -117.59   -120.43   -2.84  CH4
  CO2(g)            1.61      0.10   -1.50  CO2	 Pressure  57.8 atm, phi 0.698
  H2(g)           -36.28    -39.39   -3.11  H2
  H2O(g)           -1.49     -0.01    1.48  H2O	 Pressure   0.1 atm, phi 0.476
  O2(g)           -10.70    -13.63   -2.92  O2

**For a gas, SI = log10(fugacity). Fugacity = pressure * phi / 1 atm.
  For ideal gases, phi = 1.

Reaction step 17.

Using solution 1.	
Using gas phase 1.	
Using reaction 1.	

Reaction 1.	

	  2.000e+00 moles of the following reaction have been added:

	                 Relative
	Reactant            moles

	CO2                  1.00000

	                 Relative
	Element             moles
	C                    1.00000
	O                    2.00000

-----------------------------------Gas phase-----------------------------------

Total pressure: 64.53      atmospheres          (Peng-Robinson calculation)
    Gas volume:   1.00e+00 liters
  Molar volume:   1.63e-01 liters/mole
   P * Vm / RT:  0.43056  (Compressibility Factor Z) 

                                                        Moles in gas
                                            ----------------------------------
Component         log P           P    phi     Initial       Final       Delta

CO2(g)             1.81   6.444e+01  0.661   4.182e+00   6.117e+00   1.935e+00
H2O(g)            -1.07   8.442e-02  0.381   4.876e-03   8.014e-03   3.137e-03

-----------------------------Solution composition------------------------------

	Elements           Molality       Moles

	C                 1.383e+00   1.383e+00

----------------------------Description of solution----------------------------

                                       pH  =   3.104      Charge balance
                                       pe  =  15.001      Adjusted to redox equilibrium
      Specific Conductance (µS/cm,  25°C)  = 282
                          Density (g/cm³)  =   1.01220
                               Volume (L)  =   1.04793
                        Viscosity (mPa s)  =   0.98390
                        Activity of water  =   0.977
                 Ionic strength (mol/kgw)  =   8.119e-04
                       Mass of water (kg)  =   9.998e-01
                 Total alkalinity (eq/kg)  =   1.207e-09
                       Total CO2 (mol/kg)  =   1.383e+00
                         Temperature (°C)  =  25.00
                           Pressure (atm)  = 64.53
                  Electrical balance (eq)  =  -1.206e-09
 Percent error, 100*(Cat-|An|)/(Cat+|An|)  =  -0.00
                               Iterations  =  41
                                  Total H  = 1.109964e+02
                                  Total O  = 5.826351e+01

----------------------------Distribution of species----------------------------

                                               Log       Log       Log    mole V
   Species          Molality    Activity  Molality  Activity     Gamma   cm³/mol

   H+              8.119e-04   7.873e-04    -3.091    -3.104    -0.013      0.00
   OH-             1.373e-11   1.330e-11   -10.862   -10.876    -0.014     -3.88
   H2O             5.551e+01   9.770e-01     1.744    -0.010     0.000     18.02
C(-4)         0.000e+00
   CH4             0.000e+00   0.000e+00  -120.349  -120.349     0.000     35.54
C(4)          1.383e+00
   CO2             1.325e+00   1.325e+00     0.122     0.122     0.000     34.73
   (CO2)2          2.860e-02   2.860e-02    -1.544    -1.544     0.000     68.61
   HCO3-           8.119e-04   7.865e-04    -3.091    -3.104    -0.014     24.74
   CO3-2           5.734e-11   5.050e-11   -10.242   -10.297    -0.055     -4.11
H(0)          8.396e-40
   H2              4.198e-40   4.199e-40   -39.377   -39.377     0.000     15.03
O(0)          4.411e-14
   O2              2.205e-14   2.206e-14   -13.657   -13.656     0.000     30.31

------------------------------Saturation indices-------------------------------

  Phase               SI** log IAP   log K(298 K,  65 atm)

  CH4(g)         -117.51   -120.35   -2.84  CH4
  CO2(g)            1.63      0.12   -1.51  CO2	 Pressure  64.4 atm, phi 0.661
  H2(g)           -36.26    -39.38   -3.12  H2
  H2O(g)           -1.49     -0.01    1.48  H2O	 Pressure   0.1 atm, phi 0.381
  O2(g)           -10.73    -13.66   -2.93  O2

**For a gas, SI = log10(fugacity). Fugacity = pressure * phi / 1 atm.
  For ideal gases, phi = 1.

Reaction step 18.

Using solution 1.	
Using gas phase 1.	
Using reaction 1.	

Reaction 1.	

	  2.000e+00 moles of the following reaction have been added:

	                 Relative
	Reactant            moles

	CO2                  1.00000

	                 Relative
	Element             moles
	C                    1.00000
	O                    2.00000

-----------------------------------Gas phase-----------------------------------

Total pressure: 65.19      atmospheres          (Peng-Robinson calculation)
    Gas volume:   1.00e+00 liters
  Molar volume:   1.23e-01 liters/mole
   P * Vm / RT:  0.32793  (Compressibility Factor Z) 

                                                        Moles in gas
                                            ----------------------------------
Component         log P           P    phi     Initial       Final       Delta

CO2(g)             1.81   6.509e+01  0.657   6.117e+00   8.113e+00   1.996e+00
H2O(g)            -1.00   1.008e-01  0.319   8.014e-03   1.256e-02   4.544e-03

-----------------------------Solution composition------------------------------

	Elements           Molality       Moles

	C                 1.387e+00   1.387e+00

----------------------------Description of solution----------------------------

                                       pH  =   3.103      Charge balance
                                       pe  =  14.976      Adjusted to redox equilibrium
      Specific Conductance (µS/cm,  25°C)  = 282
                          Density (g/cm³)  =   1.01227
                               Volume (L)  =   1.04797
                        Viscosity (mPa s)  =   0.98420
                        Activity of water  =   0.977
                 Ionic strength (mol/kgw)  =   8.134e-04
                       Mass of water (kg)  =   9.998e-01
                 Total alkalinity (eq/kg)  =   1.207e-09
                       Total CO2 (mol/kg)  =   1.387e+00
                         Temperature (°C)  =  25.00
                           Pressure (atm)  = 65.19
                  Electrical balance (eq)  =  -1.206e-09
 Percent error, 100*(Cat-|An|)/(Cat+|An|)  =  -0.00
                               Iterations  =  48
                                  Total H  = 1.109873e+02
                                  Total O  = 5.826792e+01

----------------------------Distribution of species----------------------------

                                               Log       Log       Log    mole V
   Species          Molality    Activity  Molality  Activity     Gamma   cm³/mol

   H+              8.134e-04   7.888e-04    -3.090    -3.103    -0.013      0.00
   OH-             1.371e-11   1.328e-11   -10.863   -10.877    -0.014     -3.87
   H2O             5.551e+01   9.769e-01     1.744    -0.010     0.000     18.02
C(-4)         0.000e+00
   CH4             0.000e+00   0.000e+00  -120.143  -120.143     0.000     35.54
C(4)          1.387e+00
   CO2             1.329e+00   1.329e+00     0.124     0.124     0.000     34.72
   (CO2)2          2.878e-02   2.879e-02    -1.541    -1.541     0.000     68.61
   HCO3-           8.134e-04   7.880e-04    -3.090    -3.103    -0.014     24.75
   CO3-2           5.739e-11   5.054e-11   -10.241   -10.296    -0.055     -4.11
H(0)          9.442e-40
   H2              4.721e-40   4.722e-40   -39.326   -39.326     0.000     15.03
O(0)          3.484e-14
   O2              1.742e-14   1.743e-14   -13.759   -13.759     0.000     30.31

------------------------------Saturation indices-------------------------------

  Phase               SI** log IAP   log K(298 K,  65 atm)

  CH4(g)         -117.30   -120.14   -2.84  CH4
  CO2(g)            1.63      0.12   -1.51  CO2	 Pressure  65.1 atm, phi 0.657
  H2(g)           -36.21    -39.33   -3.12  H2
  H2O(g)           -1.49     -0.01    1.48  H2O	 Pressure   0.1 atm, phi 0.319
  O2(g)           -10.83    -13.76   -2.93  O2

**For a gas, SI = log10(fugacity). Fugacity = pressure * phi / 1 atm.
  For ideal gases, phi = 1.

Reaction step 19.

Using solution 1.	
Using gas phase 1.	
Using reaction 1.	

Reaction 1.	

	  2.000e+00 moles of the following reaction have been added:

	                 Relative
	Reactant            moles

	CO2                  1.00000

	                 Relative
	Element             moles
	C                    1.00000
	O                    2.00000

-----------------------------------Gas phase-----------------------------------

Total pressure: 65.16      atmospheres          (Peng-Robinson calculation)
    Gas volume:   1.00e+00 liters
  Molar volume:   9.87e-02 liters/mole
   P * Vm / RT:  0.26281  (Compressibility Factor Z) 

                                                        Moles in gas
                                            ----------------------------------
Component         log P           P    phi     Initial       Final       Delta

CO2(g)             1.81   6.504e+01  0.657   8.113e+00   1.012e+01   2.003e+00
H2O(g)            -0.92   1.197e-01  0.269   1.256e-02   1.861e-02   6.054e-03

-----------------------------Solution composition------------------------------

	Elements           Molality       Moles

	C                 1.385e+00   1.384e+00

----------------------------Description of solution----------------------------

                                       pH  =   3.103      Charge balance
                                       pe  =  14.957      Adjusted to redox equilibrium
      Specific Conductance (µS/cm,  25°C)  = 282
                          Density (g/cm³)  =   1.01224
                               Volume (L)  =   1.04776
                        Viscosity (mPa s)  =   0.98402
                        Activity of water  =   0.977
                 Ionic strength (mol/kgw)  =   8.127e-04
                       Mass of water (kg)  =   9.997e-01
                 Total alkalinity (eq/kg)  =   1.207e-09
                       Total CO2 (mol/kg)  =   1.385e+00
                         Temperature (°C)  =  25.00
                           Pressure (atm)  = 65.16
                  Electrical balance (eq)  =  -1.206e-09
 Percent error, 100*(Cat-|An|)/(Cat+|An|)  =  -0.00
                               Iterations  =  47
                                  Total H  = 1.109752e+02
                                  Total O  = 5.825617e+01

----------------------------Distribution of species----------------------------

                                               Log       Log       Log    mole V
   Species          Molality    Activity  Molality  Activity     Gamma   cm³/mol

   H+              8.127e-04   7.880e-04    -3.090    -3.103    -0.013      0.00
   OH-             1.373e-11   1.329e-11   -10.862   -10.877    -0.014     -3.87
   H2O             5.551e+01   9.769e-01     1.744    -0.010     0.000     18.02
C(-4)         0.000e+00
   CH4             0.000e+00   0.000e+00  -119.996  -119.996     0.000     35.54
C(4)          1.385e+00
   CO2             1.327e+00   1.327e+00     0.123     0.123     0.000     34.72
   (CO2)2          2.868e-02   2.868e-02    -1.542    -1.542     0.000     68.61
   HCO3-           8.127e-04   7.873e-04    -3.090    -3.104    -0.014     24.75
   CO3-2           5.738e-11   5.053e-11   -10.241   -10.296    -0.055     -4.11
H(0)          1.028e-39
   H2              5.141e-40   5.142e-40   -39.289   -39.289     0.000     15.03
O(0)          2.938e-14
   O2              1.469e-14   1.470e-14   -13.833   -13.833     0.000     30.31

------------------------------Saturation indices-------------------------------

  Phase               SI** log IAP   log K(298 K,  65 atm)

  CH4(g)         -117.15   -120.00   -2.84  CH4
  CO2(g)            1.63      0.12   -1.51  CO2	 Pressure  65.0 atm, phi 0.657
  H2(g)           -36.17    -39.29   -3.12  H2
  H2O(g)           -1.49     -0.01    1.48  H2O	 Pressure   0.1 atm, phi 0.269
  O2(g)           -10.91    -13.83   -2.93  O2

**For a gas, SI = log10(fugacity). Fugacity = pressure * phi / 1 atm.
  For ideal gases, phi = 1.

Reaction step 20.

Using solution 1.	
Using gas phase 1.	
Using reaction 1.	

Reaction 1.	

	  2.000e+00 moles of the following reaction have been added:

	                 Relative
	Reactant            moles

	CO2                  1.00000

	                 Relative
	Element             moles
	C                    1.00000
	O                    2.00000

[...]

	Elements           Molality       Moles

	C                 1.306e+00   1.301e+00

----------------------------Description of solution----------------------------

                                       pH  =   3.085      Charge balance
                                       pe  =  11.139      Adjusted to redox equilibrium
      Specific Conductance (µS/cm,  75°C)  = 486
                          Density (g/cm³)  =   0.99575
                               Volume (L)  =   1.05800
                        Viscosity (mPa s)  =   0.39619
                        Activity of water  =   0.979
                 Ionic strength (mol/kgw)  =   8.519e-04
                       Mass of water (kg)  =   9.962e-01
                 Total alkalinity (eq/kg)  =   1.214e-09
                       Total CO2 (mol/kg)  =   1.306e+00
                         Temperature (°C)  =  75.00
                           Pressure (atm)  = 260.71
                  Electrical balance (eq)  =  -1.210e-09
 Percent error, 100*(Cat-|An|)/(Cat+|An|)  =  -0.00
                               Iterations  =  66
                                  Total H  = 1.105949e+02
                                  Total O  = 5.789986e+01

----------------------------Distribution of species----------------------------

                                               Log       Log       Log    mole V
   Species          Molality    Activity  Molality  Activity     Gamma   cm³/mol

   H+              8.519e-04   8.232e-04    -3.070    -3.085    -0.015      0.00
   OH-             3.136e-10   3.025e-10    -9.504    -9.519    -0.016     -5.28
   H2O             5.551e+01   9.794e-01     1.744    -0.009     0.000     18.27
C(-4)         0.000e+00
   CH4             0.000e+00   0.000e+00   -95.674   -95.674     0.000     39.03
C(4)          1.306e+00
   CO2             1.116e+00   1.116e+00     0.048     0.048     0.000     36.79
   (CO2)2          9.448e-02   9.449e-02    -1.025    -1.025     0.000     72.75
   HCO3-           8.519e-04   8.222e-04    -3.070    -3.085    -0.015     26.27
   CO3-2           1.121e-10   9.728e-11    -9.950   -10.012    -0.062     -2.54
H(0)          2.828e-32
   H2              1.414e-32   1.414e-32   -31.850   -31.849     0.000     17.21
O(0)          2.129e-15
   O2              1.065e-15   1.065e-15   -14.973   -14.973     0.000     32.30

------------------------------Saturation indices-------------------------------

  Phase               SI** log IAP   log K(348 K, 261 atm)

  CH4(g)          -92.51    -95.67   -3.17  CH4
  CO2(g)            2.07      0.05   -2.02  CO2	 Pressure 257.4 atm, phi 0.453
  H2(g)           -28.66    -31.85   -3.19  H2
  H2O(g)           -0.36     -0.01    0.35  H2O	 Pressure   3.3 atm, phi 0.132
  O2(g)           -11.75    -14.97   -3.23  O2

**For a gas, SI = log10(fugacity). Fugacity = pressure * phi / 1 atm.
  For ideal gases, phi = 1.

Reaction step 23.

Using solution 1.	
Using gas phase 1.	
Using temperature 1.	
Using reaction 1.	

Reaction 1.	

	  2.000e+00 moles of the following reaction have been added:

	                 Relative
	Reactant            moles

	CO2                  1.00000

	                 Relative
	Element             moles
	C                    1.00000
	O                    2.00000

-----------------------------------Gas phase-----------------------------------

Total pressure: 332.36      atmospheres          (Peng-Robinson calculation)
    Gas volume:   1.00e+00 liters
  Molar volume:   5.45e-02 liters/mole
   P * Vm / RT:  0.63361  (Compressibility Factor Z) 

                                                        Moles in gas
                                            ----------------------------------
Component         log P           P    phi     Initial       Final       Delta

CO2(g)             2.52   3.279e+02  0.411   1.620e+01   1.812e+01   1.916e+00
H2O(g)             0.65   4.446e+00  0.103   2.087e-01   2.456e-01   3.688e-02

-----------------------------Solution composition------------------------------

	Elements           Molality       Moles

	C                 1.391e+00   1.385e+00

----------------------------Description of solution----------------------------

                                       pH  =   3.058      Charge balance
                                       pe  =  11.391      Adjusted to redox equilibrium
      Specific Conductance (µS/cm,  75°C)  = 514
                          Density (g/cm³)  =   0.99941
                               Volume (L)  =   1.05714
                        Viscosity (mPa s)  =   0.39895
                        Activity of water  =   0.978
                 Ionic strength (mol/kgw)  =   9.056e-04
                       Mass of water (kg)  =   9.956e-01
                 Total alkalinity (eq/kg)  =   1.215e-09
                       Total CO2 (mol/kg)  =   1.391e+00
                         Temperature (°C)  =  75.00
                           Pressure (atm)  = 332.36
                  Electrical balance (eq)  =  -1.209e-09
 Percent error, 100*(Cat-|An|)/(Cat+|An|)  =  -0.00
                               Iterations  =  83
                                  Total H  = 1.105212e+02
                                  Total O  = 5.803028e+01

----------------------------Distribution of species----------------------------

                                               Log       Log       Log    mole V
   Species          Molality    Activity  Molality  Activity     Gamma   cm³/mol

   H+              9.056e-04   8.744e-04    -3.043    -3.058    -0.015      0.00
   OH-             3.136e-10   3.022e-10    -9.504    -9.520    -0.016     -5.48
   H2O             5.551e+01   9.781e-01     1.744    -0.010     0.000     18.21
C(-4)         0.000e+00
   CH4             0.000e+00   0.000e+00   -97.503   -97.503     0.000     39.01
C(4)          1.391e+00
   CO2             1.179e+00   1.179e+00     0.071     0.072     0.000     36.65
   (CO2)2          1.056e-01   1.056e-01    -0.976    -0.976     0.000     72.47
   HCO3-           9.056e-04   8.733e-04    -3.043    -3.059    -0.016     26.50
   CO3-2           1.203e-10   1.041e-10    -9.920    -9.983    -0.063     -1.90
H(0)          9.551e-33
   H2              4.776e-33   4.777e-33   -32.321   -32.321     0.000     17.16
O(0)          1.729e-14
   O2              8.645e-15   8.647e-15   -14.063   -14.063     0.000     32.14

------------------------------Saturation indices-------------------------------

  Phase               SI** log IAP   log K(348 K, 332 atm)

  CH4(g)          -94.29    -97.50   -3.21  CH4
  CO2(g)            2.13      0.07   -2.06  CO2	 Pressure 327.9 atm, phi 0.411
  H2(g)           -29.11    -32.32   -3.21  H2
  H2O(g)           -0.34     -0.01    0.33  H2O	 Pressure   4.4 atm, phi 0.103
  O2(g)           -10.80    -14.06   -3.26  O2

**For a gas, SI = log10(fugacity). Fugacity = pressure * phi / 1 atm.
  For ideal gases, phi = 1.

Reaction step 24.

WARNING: Numerical method failed, switching to numerical derivatives.
WARNING: Maximum iterations exceeded, 100

WARNING: Numerical method failed with this set of convergence parameters.

WARNING: Trying smaller step size, pe step size 10, 5 ... 

Using solution 1.	
Using gas phase 1.	
Using temperature 1.	
Using reaction 1.	

Reaction 1.	

	  2.000e+00 moles of the following reaction have been added:

	                 Relative
	Reactant            moles

	CO2                  1.00000

	                 Relative
	Element             moles
	C                    1.00000
	O                    2.00000

-----------------------------------Gas phase-----------------------------------

Total pressure: 436.27      atmospheres          (Peng-Robinson calculation)
    Gas volume:   1.00e+00 liters
  Molar volume:   4.93e-02 liters/mole
   P * Vm / RT:  0.75232  (Compressibility Factor Z) 

                                                        Moles in gas
                                            ----------------------------------
Component         log P           P    phi     Initial       Final       Delta

CO2(g)             2.63   4.302e+02  0.379   1.812e+01   2.002e+01   1.902e+00
H2O(g)             0.78   6.029e+00  0.081   2.456e-01   2.805e-01   3.490e-02

-----------------------------Solution composition------------------------------

	Elements           Molality       Moles

	C                 1.490e+00   1.482e+00

----------------------------Description of solution----------------------------

                                       pH  =   3.025      Charge balance
                                       pe  =  12.407      Adjusted to redox equilibrium
      Specific Conductance (µS/cm,  75°C)  = 551
                          Density (g/cm³)  =   1.00447
                               Volume (L)  =   1.05548
                        Viscosity (mPa s)  =   0.40274
                        Activity of water  =   0.977
                 Ionic strength (mol/kgw)  =   9.782e-04
                       Mass of water (kg)  =   9.949e-01
                 Total alkalinity (eq/kg)  =   1.215e-09
                       Total CO2 (mol/kg)  =   1.490e+00
                         Temperature (°C)  =  75.00
                           Pressure (atm)  = 436.27
                  Electrical balance (eq)  =  -1.209e-09
 Percent error, 100*(Cat-|An|)/(Cat+|An|)  =  -0.00
                               Iterations  =  70 (171 overall)
                                  Total H  = 1.104514e+02
                                  Total O  = 5.819063e+01

----------------------------Distribution of species----------------------------

                                               Log       Log       Log    mole V
   Species          Molality    Activity  Molality  Activity     Gamma   cm³/mol

   H+              9.782e-04   9.434e-04    -3.010    -3.025    -0.016      0.00
   OH-             3.177e-10   3.058e-10    -9.498    -9.515    -0.017     -5.75
   H2O             5.551e+01   9.767e-01     1.744    -0.010     0.000     18.14
C(-4)         0.000e+00
   CH4             0.000e+00   0.000e+00  -105.403  -105.403     0.000     38.99
C(4)          1.490e+00
   CO2             1.251e+00   1.251e+00     0.097     0.097     0.000     36.46
   (CO2)2          1.192e-01   1.192e-01    -0.924    -0.924     0.000     72.09
   HCO3-           9.782e-04   9.422e-04    -3.010    -3.026    -0.016     26.81
   CO3-2           1.329e-10   1.144e-10    -9.877    -9.942    -0.065     -1.02
H(0)          9.708e-35
   H2              4.854e-35   4.855e-35   -34.314   -34.314     0.000     17.08
O(0)          1.501e-10
   O2              7.505e-11   7.507e-11   -10.125   -10.125     0.000     31.91

------------------------------Saturation indices-------------------------------

  Phase               SI** log IAP   log K(348 K, 436 atm)

  CH4(g)         -102.13   -105.40   -3.27  CH4
  CO2(g)            2.21      0.10   -2.11  CO2	 Pressure 430.2 atm, phi 0.379
  H2(g)           -31.08    -34.31   -3.23  H2
  H2O(g)           -0.31     -0.01    0.30  H2O	 Pressure   6.0 atm, phi 0.081
  O2(g)            -6.82    -10.12   -3.31  O2

**For a gas, SI = log10(fugacity). Fugacity = pressure * phi / 1 atm.
  For ideal gases, phi = 1.

Reaction step 25.

WARNING: Numerical method failed, switching to numerical derivatives.
WARNING: Maximum iterations exceeded, 100

WARNING: Numerical method failed with this set of convergence parameters.

WARNING: Trying smaller step size, pe step size 10, 5 ... 

Using solution 1.	
Using gas phase 1.	
Using temperature 1.	
Using reaction 1.	

Reaction 1.	

	  2.000e+00 moles of the following reaction have been added:

	                 Relative
	Reactant            moles

	CO2                  1.00000

	                 Relative
	Element             moles
	C                    1.00000
	O                    2.00000

-----------------------------------Gas phase-----------------------------------

Total pressure: 586.94      atmospheres          (Peng-Robinson calculation)
    Gas volume:   1.00e+00 liters
  Molar volume:   4.50e-02 liters/mole
   P * Vm / RT:  0.92480  (Compressibility Factor Z) 

                                                        Moles in gas
                                            ----------------------------------
Component         log P           P    phi     Initial       Final       Delta

CO2(g)             2.76   5.787e+02  0.361   2.002e+01   2.190e+01   1.887e+00
H2O(g)             0.91   8.199e+00  0.065   2.805e-01   3.103e-01   2.980e-02

-----------------------------Solution composition------------------------------

	Elements           Molality       Moles

	C                 1.604e+00   1.595e+00

----------------------------Description of solution----------------------------

                                       pH  =   2.984      Charge balance
                                       pe  =  12.447      Adjusted to redox equilibrium
      Specific Conductance (µS/cm,  75°C)  = 603
                          Density (g/cm³)  =   1.01142
                               Volume (L)  =   1.05260
                        Viscosity (mPa s)  =   0.40803
                        Activity of water  =   0.975
                 Ionic strength (mol/kgw)  =   1.078e-03
                       Mass of water (kg)  =   9.944e-01
                 Total alkalinity (eq/kg)  =   1.216e-09
                       Total CO2 (mol/kg)  =   1.604e+00
                         Temperature (°C)  =  75.00
                           Pressure (atm)  = 586.94
                  Electrical balance (eq)  =  -1.209e-09
 Percent error, 100*(Cat-|An|)/(Cat+|An|)  =  -0.00
                               Iterations  =  37 (138 overall)
                                  Total H  = 1.103918e+02
                                  Total O  = 5.838658e+01

----------------------------Distribution of species----------------------------

                                               Log       Log       Log    mole V
   Species          Molality    Activity  Molality  Activity     Gamma   cm³/mol

   H+              1.078e-03   1.038e-03    -2.967    -2.984    -0.016      0.00
   OH-             3.290e-10   3.162e-10    -9.483    -9.500    -0.017     -6.10
   H2O             5.551e+01   9.750e-01     1.744    -0.011     0.000     18.03
C(-4)         0.000e+00
   CH4             0.000e+00   0.000e+00  -105.445  -105.445     0.000     38.95
C(4)          1.604e+00
   CO2             1.332e+00   1.332e+00     0.124     0.124     0.000     36.20
   (CO2)2          1.358e-01   1.358e-01    -0.867    -0.867     0.000     71.56
   HCO3-           1.078e-03   1.037e-03    -2.967    -2.984    -0.017     27.23
   CO3-2           1.524e-10   1.304e-10    -9.817    -9.885    -0.068      0.16
H(0)          8.984e-35
   H2              4.492e-35   4.493e-35   -34.348   -34.347     0.000     16.98
O(0)          1.502e-10
   O2              7.509e-11   7.511e-11   -10.124   -10.124     0.000     31.60

------------------------------Saturation indices-------------------------------

  Phase               SI** log IAP   log K(348 K, 587 atm)

  CH4(g)         -102.08   -105.45   -3.36  CH4
  CO2(g)            2.32      0.12   -2.20  CO2	 Pressure 578.7 atm, phi 0.361
  H2(g)           -31.08    -34.35   -3.27  H2
  H2O(g)           -0.27     -0.01    0.26  H2O	 Pressure   8.2 atm, phi 0.065
  O2(g)            -6.74    -10.12   -3.38  O2

**For a gas, SI = log10(fugacity). Fugacity = pressure * phi / 1 atm.
  For ideal gases, phi = 1.

Reaction step 26.

WARNING: Numerical method failed, switching to numerical derivatives.
WARNING: Maximum iterations exceeded, 100

WARNING: Numerical method failed with this set of convergence parameters.

WARNING: Trying smaller step size, pe step size 10, 5 ... 

Using solution 1.	
Using gas phase 1.	
Using temperature 1.	
Using reaction 1.	

Reaction 1.	

	  2.000e+00 moles of the following reaction have been added:

	                 Relative
	Reactant            moles

	CO2                  1.00000

	                 Relative
	Element             moles
	C                    1.00000
	O                    2.00000

-----------------------------------Gas phase-----------------------------------

Total pressure: 806.18      atmospheres          (Peng-Robinson calculation)
    Gas volume:   1.00e+00 liters
  Molar volume:   4.15e-02 liters/mole
   P * Vm / RT:  1.17056  (Compressibility Factor Z) 

                                                        Moles in gas
                                            ----------------------------------
Component         log P           P    phi     Initial       Final       Delta

CO2(g)             2.90   7.951e+02  0.367   2.190e+01   2.378e+01   1.871e+00
H2O(g)             1.04   1.107e+01  0.055   3.103e-01   3.312e-01   2.083e-02

-----------------------------Solution composition------------------------------

	Elements           Molality       Moles

	C                 1.734e+00   1.724e+00

----------------------------Description of solution----------------------------

                                       pH  =   2.931      Charge balance
                                       pe  =  12.496      Adjusted to redox equilibrium
      Specific Conductance (µS/cm,  75°C)  = 676
                          Density (g/cm³)  =   1.02096
                               Volume (L)  =   1.04795
                        Viscosity (mPa s)  =   0.41549
                        Activity of water  =   0.973
                 Ionic strength (mol/kgw)  =   1.218e-03
                       Mass of water (kg)  =   9.940e-01
                 Total alkalinity (eq/kg)  =   1.216e-09
                       Total CO2 (mol/kg)  =   1.734e+00
                         Temperature (°C)  =  75.00
                           Pressure (atm)  = 806.18
                  Electrical balance (eq)  =  -1.209e-09
 Percent error, 100*(Cat-|An|)/(Cat+|An|)  =  -0.00
                               Iterations  =  37 (138 overall)
                                  Total H  = 1.103501e+02
                                  Total O  = 5.862319e+01

----------------------------Distribution of species----------------------------

                                               Log       Log       Log    mole V
   Species          Molality    Activity  Molality  Activity     Gamma   cm³/mol

   H+              1.218e-03   1.171e-03    -2.914    -2.931    -0.017      0.00
   OH-             3.539e-10   3.395e-10    -9.451    -9.469    -0.018     -6.55
   H2O             5.551e+01   9.731e-01     1.744    -0.012     0.000     17.88
C(-4)         0.000e+00
   CH4             0.000e+00   0.000e+00  -105.516  -105.516     0.000     38.90
C(4)          1.734e+00
   CO2             1.422e+00   1.422e+00     0.153     0.153     0.000     35.85
   (CO2)2          1.557e-01   1.558e-01    -0.808    -0.808     0.000     70.87
   HCO3-           1.218e-03   1.170e-03    -2.914    -2.932    -0.018     27.78
   CO3-2           1.837e-10   1.560e-10    -9.736    -9.807    -0.071      1.71
H(0)          8.046e-35
   H2              4.023e-35   4.024e-35   -34.395   -34.395     0.000     16.85
O(0)          1.502e-10
   O2              7.511e-11   7.514e-11   -10.124   -10.124     0.000     31.20

------------------------------Saturation indices-------------------------------

  Phase               SI** log IAP   log K(348 K, 806 atm)

  CH4(g)         -102.03   -105.52   -3.49  CH4
  CO2(g)            2.47      0.15   -2.31  CO2	 Pressure 795.1 atm, phi 0.367
  H2(g)           -31.07    -34.40   -3.33  H2
  H2O(g)           -0.22     -0.01    0.20  H2O	 Pressure  11.1 atm, phi 0.055
  O2(g)            -6.64    -10.12   -3.48  O2

**For a gas, SI = log10(fugacity). Fugacity = pressure * phi / 1 atm.
  For ideal gases, phi = 1.

------------------
End of simulation.
------------------

------------------------------------
Reading input data for simulation 4.
------------------------------------

